************************************************************************
* auCdl Netlist:
* 
* Library Name:  SRAM_ChargePulsation
* Top Cell Name: SRAMCIMfinal
* View Name:     schematic
* Netlisted on:  Aug 21 21:42:47 2022
************************************************************************

*.BIPOLAR
*.RESI = 2000 
*.RESVAL
*.CAPVAL
*.DIOPERI
*.DIOAREA
*.EQUATION
*.SCALE METER
*.MEGA
.PARAM

.lib '/data/home/chentingran/PDK/SPDK55LL_ULP_09121825_OA_CDS_V1.15_0/smic55ll_ulp_09121825_oa_cds_v1.15_0/models/hspice/l0055ll_v1p15.lib' TT
.lib '/data/home/chentingran/PDK/SPDK55LL_ULP_09121825_OA_CDS_V1.15_0/smic55ll_ulp_09121825_oa_cds_v1.15_0/models/hspice/l0055ll_v1p15.lib' RES_TT
.lib '/data/home/chentingran/PDK/SPDK55LL_ULP_09121825_OA_CDS_V1.15_0/smic55ll_ulp_09121825_oa_cds_v1.15_0/models/hspice/l0055ll_v1p15.lib' MOM_TT
.options MACMOD=1


************************************************************************
* Library Name: SRAM_ChargePulsation
* Cell Name:    cell_SRAM
* View Name:    schematic
************************************************************************

.SUBCKT cell_SRAM BL Q QN SL VDD VSS WL
*.PININFO WL:I Q:O QN:O BL:B SL:B VDD:B VSS:B
XPM0 QN Q VDD VDD p12ll_mis_ckt MR=1 L=60n W=120n
XPM1 Q QN VDD VDD p12ll_mis_ckt MR=1 L=60n W=120n
XNM5 Q QN VSS VSS n12ll_mis_ckt MR=1 L=60n W=120n
XNM4 QN Q VSS VSS n12ll_mis_ckt MR=1 L=60n W=120n
XNM3 Q WL SL VSS n12ll_mis_ckt MR=1 L=60n W=120n
XNM2 BL WL QN VSS n12ll_mis_ckt MR=1 L=60n W=120n
.ENDS

************************************************************************
* Library Name: SRAM_ChargePulsation
* Cell Name:    cell_PIM
* View Name:    schematic
************************************************************************

.SUBCKT cell_PIM bl cbl in1 in2 sl vdd vss wl
*.PININFO bl:I in1:I in2:I sl:I wl:I cbl:B vdd:B vss:B
XI0 bl q qn sl vdd vss wl / cell_SRAM
XM4 cbl in2 net29 vdd p12ll_mis_ckt MR=1 L=60n W=120n
XM5 net29 in1 net28 vdd p12ll_mis_ckt MR=1 L=60n W=120n
XM0 net29 qn vss vss n25ll_mis_ckt MR=1 L=280n W=210n
XNM1 vdd q net28 vss n12ll_mis_ckt MR=1 L=60n W=120n
.ENDS

************************************************************************
* Library Name: SRAM_ChargePulsation
* Cell Name:    cell_PIM2
* View Name:    schematic
************************************************************************

.SUBCKT cell_PIM2 bl cbl in1 in2 sl vdd vss wl
*.PININFO bl:I in1:I in2:I sl:I wl:I cbl:B vdd:B vss:B
XI0 bl q qn sl vdd vss wl / cell_SRAM
XM5 net9 qn vss vss n25ll_mis_ckt MR=1 L=280n W=210n
XM0 net07 qn vss vss n25ll_mis_ckt MR=1 L=280n W=210n
XM3 cbl in2 net9 vdd p12ll_mis_ckt MR=1 L=60n W=120n
XM2 cbl in2 net07 vdd p12ll_mis_ckt MR=1 L=60n W=120n
XM4 net9 in1 net13 vdd p12ll_mis_ckt MR=1 L=60n W=120n
XM1 net07 in1 net7 vdd p12ll_mis_ckt MR=1 L=60n W=120n
XNM3 vdd q net7 vss n12ll_mis_ckt MR=1 L=60n W=120n
XNM4 vdd q net13 vss n12ll_mis_ckt MR=1 L=60n W=120n
.ENDS

************************************************************************
* Library Name: LogicGates
* Cell Name:    nand
* View Name:    schematic
************************************************************************

.SUBCKT nand IN0 IN1 OUT VDD VSS
*.PININFO IN0:B IN1:B OUT:B VDD:B VSS:B
XNM4 net10 IN1 VSS VSS n12ll_mis_ckt MR=1 L=60n W=120n
XNM3 OUT IN0 net10 VSS n12ll_mis_ckt MR=1 L=60n W=120n
XPM2 OUT IN1 VDD VDD p12ll_mis_ckt MR=1 L=60n W=120n
XPM1 OUT IN0 VDD VDD p12ll_mis_ckt MR=1 L=60n W=120n
.ENDS

************************************************************************
* Library Name: LogicGates
* Cell Name:    inv1
* View Name:    schematic
************************************************************************

.SUBCKT inv1 IN OUT VDD VSS
*.PININFO IN:B OUT:B VDD:B VSS:B
XPM1 OUT IN VDD VDD p12ll_mis_ckt MR=1 L=60n W=900n
XNM1 OUT IN VSS VSS n12ll_mis_ckt MR=1 L=60n W=450n
.ENDS

************************************************************************
* Library Name: LogicGates
* Cell Name:    Tgate
* View Name:    schematic
************************************************************************

.SUBCKT Tgate IN OE OEN OUT VDD VSS
*.PININFO IN:B OE:B OEN:B OUT:B VDD:B VSS:B
XNM2 OUT OE IN VSS n12ll_mis_ckt MR=1 L=60n W=600n
XPM0 IN OEN OUT VDD p12ll_mis_ckt MR=1 L=60n W=1.2u
.ENDS

************************************************************************
* Library Name: SRAM_ChargePulsation
* Cell Name:    array_test_16r_cell
* View Name:    schematic
************************************************************************

.SUBCKT array_test_16r_cell bl<0> bl<1> bl<2> bl<3> cbl<0> cbl<1> col_en 
+ in1<0> in1<1> in1<2> in1<3> in1<4> in1<5> in1<6> in1<7> in1<8> in1<9> 
+ in1<10> in1<11> in1<12> in1<13> in1<14> in1<15> in2<0> in2<1> in2<2> in2<3> 
+ in2<4> in2<5> in2<6> in2<7> in2<8> in2<9> in2<10> in2<11> in2<12> in2<13> 
+ in2<14> in2<15> sel sl<0> sl<1> sl<2> sl<3> vdd vss wl<0> wl<1> wl<2> wl<3> 
+ wl<4> wl<5> wl<6> wl<7> wl<8> wl<9> wl<10> wl<11> wl<12> wl<13> wl<14> wl<15>
*.PININFO bl<0>:I bl<1>:I bl<2>:I bl<3>:I col_en:I in1<0>:I in1<1>:I in1<2>:I 
*.PININFO in1<3>:I in1<4>:I in1<5>:I in1<6>:I in1<7>:I in1<8>:I in1<9>:I 
*.PININFO in1<10>:I in1<11>:I in1<12>:I in1<13>:I in1<14>:I in1<15>:I in2<0>:I 
*.PININFO in2<1>:I in2<2>:I in2<3>:I in2<4>:I in2<5>:I in2<6>:I in2<7>:I 
*.PININFO in2<8>:I in2<9>:I in2<10>:I in2<11>:I in2<12>:I in2<13>:I in2<14>:I 
*.PININFO in2<15>:I sel:I sl<0>:I sl<1>:I sl<2>:I sl<3>:I wl<0>:I wl<1>:I 
*.PININFO wl<2>:I wl<3>:I wl<4>:I wl<5>:I wl<6>:I wl<7>:I wl<8>:I wl<9>:I 
*.PININFO wl<10>:I wl<11>:I wl<12>:I wl<13>:I wl<14>:I wl<15>:I cbl<0>:B 
*.PININFO cbl<1>:B vdd:B vss:B
XI24707 bl<2> net012 in1<11> in2<11> sl<2> vdd vss wl<11> / cell_PIM
XI24708 bl<2> net012 in1<9> in2<9> sl<2> vdd vss wl<9> / cell_PIM
XI24705 bl<2> net012 in1<10> in2<10> sl<2> vdd vss wl<10> / cell_PIM
XI24709 bl<2> net012 in1<8> in2<8> sl<2> vdd vss wl<8> / cell_PIM
XI24967 bl<2> net012 in1<0> in2<0> sl<2> vdd vss wl<0> / cell_PIM
XI24966 bl<2> net012 in1<1> in2<1> sl<2> vdd vss wl<1> / cell_PIM
XI24965 bl<2> net012 in1<2> in2<2> sl<2> vdd vss wl<2> / cell_PIM
XI24869 bl<2> net012 in1<3> in2<3> sl<2> vdd vss wl<3> / cell_PIM
XI24868 bl<2> net012 in1<4> in2<4> sl<2> vdd vss wl<4> / cell_PIM
XI24867 bl<2> net012 in1<6> in2<6> sl<2> vdd vss wl<6> / cell_PIM
XI24866 bl<2> net012 in1<7> in2<7> sl<2> vdd vss wl<7> / cell_PIM
XI24865 bl<2> net012 in1<5> in2<5> sl<2> vdd vss wl<5> / cell_PIM
XI24698 bl<0> net0145 in1<8> in2<8> sl<0> vdd vss wl<8> / cell_PIM
XI24699 bl<0> net0145 in1<9> in2<9> sl<0> vdd vss wl<9> / cell_PIM
XI24696 bl<0> net0145 in1<11> in2<11> sl<0> vdd vss wl<11> / cell_PIM
XI24695 bl<0> net0145 in1<10> in2<10> sl<0> vdd vss wl<10> / cell_PIM
XI24961 bl<0> net0145 in1<0> in2<0> sl<0> vdd vss wl<0> / cell_PIM
XI24960 bl<0> net0145 in1<2> in2<2> sl<0> vdd vss wl<2> / cell_PIM
XI24959 bl<0> net0145 in1<1> in2<1> sl<0> vdd vss wl<1> / cell_PIM
XI24859 bl<0> net0145 in1<4> in2<4> sl<0> vdd vss wl<4> / cell_PIM
XI24857 bl<0> net0145 in1<7> in2<7> sl<0> vdd vss wl<7> / cell_PIM
XI24856 bl<0> net0145 in1<6> in2<6> sl<0> vdd vss wl<6> / cell_PIM
XI24855 bl<0> net0145 in1<5> in2<5> sl<0> vdd vss wl<5> / cell_PIM
XI24858 bl<0> net0145 in1<3> in2<3> sl<0> vdd vss wl<3> / cell_PIM
XI24706 bl<2> net012 in1<12> in2<12> sl<2> vdd vss wl<12> / cell_PIM
XI24548 bl<2> net012 in1<14> in2<14> sl<2> vdd vss wl<14> / cell_PIM
XI24549 bl<2> net012 in1<13> in2<13> sl<2> vdd vss wl<13> / cell_PIM
XI24545 bl<2> net012 in1<15> in2<15> sl<2> vdd vss wl<15> / cell_PIM
XI24538 bl<0> net0145 in1<13> in2<13> sl<0> vdd vss wl<13> / cell_PIM
XI24697 bl<0> net0145 in1<12> in2<12> sl<0> vdd vss wl<12> / cell_PIM
XI24539 bl<0> net0145 in1<14> in2<14> sl<0> vdd vss wl<14> / cell_PIM
XI24535 bl<0> net0145 in1<15> in2<15> sl<0> vdd vss wl<15> / cell_PIM
XI24711 bl<3> net012 in1<11> in2<11> sl<3> vdd vss wl<11> / cell_PIM2
XI24712 bl<3> net012 in1<10> in2<10> sl<3> vdd vss wl<10> / cell_PIM2
XI24713 bl<3> net012 in1<9> in2<9> sl<3> vdd vss wl<9> / cell_PIM2
XI24970 bl<3> net012 in1<0> in2<0> sl<3> vdd vss wl<0> / cell_PIM2
XI24969 bl<3> net012 in1<1> in2<1> sl<3> vdd vss wl<1> / cell_PIM2
XI24968 bl<3> net012 in1<2> in2<2> sl<3> vdd vss wl<2> / cell_PIM2
XI24874 bl<3> net012 in1<4> in2<4> sl<3> vdd vss wl<4> / cell_PIM2
XI24872 bl<3> net012 in1<5> in2<5> sl<3> vdd vss wl<5> / cell_PIM2
XI24871 bl<3> net012 in1<6> in2<6> sl<3> vdd vss wl<6> / cell_PIM2
XI24870 bl<3> net012 in1<7> in2<7> sl<3> vdd vss wl<7> / cell_PIM2
XI24873 bl<3> net012 in1<3> in2<3> sl<3> vdd vss wl<3> / cell_PIM2
XI24714 bl<3> net012 in1<8> in2<8> sl<3> vdd vss wl<8> / cell_PIM2
XI24704 bl<1> net0145 in1<9> in2<9> sl<1> vdd vss wl<9> / cell_PIM2
XI24703 bl<1> net0145 in1<8> in2<8> sl<1> vdd vss wl<8> / cell_PIM2
XI24701 bl<1> net0145 in1<11> in2<11> sl<1> vdd vss wl<11> / cell_PIM2
XI24700 bl<1> net0145 in1<10> in2<10> sl<1> vdd vss wl<10> / cell_PIM2
XI24964 bl<1> net0145 in1<0> in2<0> sl<1> vdd vss wl<0> / cell_PIM2
XI24962 bl<1> net0145 in1<1> in2<1> sl<1> vdd vss wl<1> / cell_PIM2
XI24963 bl<1> net0145 in1<2> in2<2> sl<1> vdd vss wl<2> / cell_PIM2
XI24864 bl<1> net0145 in1<3> in2<3> sl<1> vdd vss wl<3> / cell_PIM2
XI24862 bl<1> net0145 in1<7> in2<7> sl<1> vdd vss wl<7> / cell_PIM2
XI24861 bl<1> net0145 in1<6> in2<6> sl<1> vdd vss wl<6> / cell_PIM2
XI24860 bl<1> net0145 in1<5> in2<5> sl<1> vdd vss wl<5> / cell_PIM2
XI24863 bl<1> net0145 in1<4> in2<4> sl<1> vdd vss wl<4> / cell_PIM2
XI24710 bl<3> net012 in1<12> in2<12> sl<3> vdd vss wl<12> / cell_PIM2
XI24553 bl<3> net012 in1<14> in2<14> sl<3> vdd vss wl<14> / cell_PIM2
XI24554 bl<3> net012 in1<13> in2<13> sl<3> vdd vss wl<13> / cell_PIM2
XI24552 bl<3> net012 in1<15> in2<15> sl<3> vdd vss wl<15> / cell_PIM2
XI24543 bl<1> net0145 in1<13> in2<13> sl<1> vdd vss wl<13> / cell_PIM2
XI24702 bl<1> net0145 in1<12> in2<12> sl<1> vdd vss wl<12> / cell_PIM2
XI24544 bl<1> net0145 in1<14> in2<14> sl<1> vdd vss wl<14> / cell_PIM2
XI24540 bl<1> net0145 in1<15> in2<15> sl<1> vdd vss wl<15> / cell_PIM2
XI32 sel_n col_en en vdd vss / nand
XI14<0> sel sel_n vdd vss / inv1
XI14<1> sel sel_n vdd vss / inv1
XI14<2> sel sel_n vdd vss / inv1
XI14<3> sel sel_n vdd vss / inv1
XI14<4> sel sel_n vdd vss / inv1
XI14<5> sel sel_n vdd vss / inv1
XI14<6> sel sel_n vdd vss / inv1
XI14<7> sel sel_n vdd vss / inv1
XI14<8> sel sel_n vdd vss / inv1
XI14<9> sel sel_n vdd vss / inv1
XI14<10> sel sel_n vdd vss / inv1
XI14<11> sel sel_n vdd vss / inv1
XI14<12> sel sel_n vdd vss / inv1
XI14<13> sel sel_n vdd vss / inv1
XI14<14> sel sel_n vdd vss / inv1
XI14<15> sel sel_n vdd vss / inv1
XI33<0> en en_n vdd vss / inv1
XI33<1> en en_n vdd vss / inv1
XI33<2> en en_n vdd vss / inv1
XI33<3> en en_n vdd vss / inv1
XI33<4> en en_n vdd vss / inv1
XI33<5> en en_n vdd vss / inv1
XI33<6> en en_n vdd vss / inv1
XI33<7> en en_n vdd vss / inv1
XI33<8> en en_n vdd vss / inv1
XI33<9> en en_n vdd vss / inv1
XI33<10> en en_n vdd vss / inv1
XI33<11> en en_n vdd vss / inv1
XI33<12> en en_n vdd vss / inv1
XI33<13> en en_n vdd vss / inv1
XI33<14> en en_n vdd vss / inv1
XI33<15> en en_n vdd vss / inv1
XI31 net012 en en_n cbl<1> vdd vss / Tgate
XI30 net0145 en en_n cbl<0> vdd vss / Tgate
.ENDS

************************************************************************
* Library Name: LogicGates
* Cell Name:    3nand
* View Name:    schematic
************************************************************************

.SUBCKT 3nand VDD VSS in<0> in<1> in<2> out
*.PININFO in<0>:I in<1>:I in<2>:I out:O VDD:B VSS:B
XPM0 out in<0> VDD VDD p12ll_mis_ckt MR=1 L=80n W=200n
XPM1 out in<2> VDD VDD p12ll_mis_ckt MR=1 L=80n W=200n
XPM2 out in<1> VDD VDD p12ll_mis_ckt MR=1 L=80n W=200n
XNM6 net12 in<2> VSS VSS n12ll_mis_ckt MR=1 L=80n W=200n
XNM5 net19 in<1> net12 VSS n12ll_mis_ckt MR=1 L=80n W=200n
XNM4 out in<0> net19 VSS n12ll_mis_ckt MR=1 L=80n W=200n
.ENDS

************************************************************************
* Library Name: LogicGates
* Cell Name:    inv4
* View Name:    schematic
************************************************************************

.SUBCKT inv4 IN OUT VDD VSS
*.PININFO IN:B OUT:B VDD:B VSS:B
XNM1 OUT IN VSS VSS n12ll_mis_ckt MR=1 L=60n W=1.8u
XPM1 OUT IN VDD VDD p12ll_mis_ckt MR=1 L=60n W=3.6u
.ENDS

************************************************************************
* Library Name: SRAM_ChargePulsation
* Cell Name:    2x4decoder
* View Name:    schematic
************************************************************************

.SUBCKT 2x4decoder VDD VSS en in<0> in<1> nout<0> nout<1> nout<2> nout<3>
*.PININFO en:I in<0>:I in<1>:I nout<0>:O nout<1>:O nout<2>:O nout<3>:O VDD:B 
*.PININFO VSS:B
XI3 VDD VSS in<0> net06 in<1> net016 / 3nand
XI2 VDD VSS net11 net06 in<1> net017 / 3nand
XI1 VDD VSS in<0> net06 net04 net018 / 3nand
XI0 VDD VSS net11 net06 net04 net019 / 3nand
XI6 en net06 VDD VSS / inv1
XI5 in<1> net04 VDD VSS / inv1
XI4 in<0> net11 VDD VSS / inv1
XI44 net016 nout<3> VDD VSS / inv4
XI43 net017 nout<2> VDD VSS / inv4
XI42 net018 nout<1> VDD VSS / inv4
XI41 net019 nout<0> VDD VSS / inv4
.ENDS

************************************************************************
* Library Name: SRAM_ChargePulsation
* Cell Name:    3x8decoder_2
* View Name:    schematic
************************************************************************

.SUBCKT 3x8decoder_2 en in<0> in<1> in<2> out<0> out<1> out<2> out<3> out<4> 
+ out<5> out<6> out<7> vdd vss
*.PININFO en:I in<0>:I in<1>:I in<2>:I out<0>:O out<1>:O out<2>:O out<3>:O 
*.PININFO out<4>:O out<5>:O out<6>:O out<7>:O vdd:B vss:B
XI1 vdd vss en2 in<0> in<1> out<4> out<5> out<6> out<7> / 2x4decoder
XI0 vdd vss en1 in<0> in<1> out<0> out<1> out<2> out<3> / 2x4decoder
XI6 in<2> en net010 vdd vss / nand
XI7 inn<2> en net09 vdd vss / nand
XI8 net09 en2 vdd vss / inv1
XI5 net010 en1 vdd vss / inv1
XI2 in<2> inn<2> vdd vss / inv1
.ENDS

************************************************************************
* Library Name: SRAM_ChargePulsation
* Cell Name:    array_test_cel_2
* View Name:    schematic
************************************************************************

.SUBCKT array_test_cel_2 bl<0> bl<1> bl<2> bl<3> cbl<0> cbl<1> col_en in1<0> 
+ in1<1> in1<2> in1<3> in1<4> in1<5> in1<6> in1<7> in1<8> in1<9> in1<10> 
+ in1<11> in1<12> in1<13> in1<14> in1<15> in1<16> in1<17> in1<18> in1<19> 
+ in1<20> in1<21> in1<22> in1<23> in1<24> in1<25> in1<26> in1<27> in1<28> 
+ in1<29> in1<30> in1<31> in1<32> in1<33> in1<34> in1<35> in1<36> in1<37> 
+ in1<38> in1<39> in1<40> in1<41> in1<42> in1<43> in1<44> in1<45> in1<46> 
+ in1<47> in1<48> in1<49> in1<50> in1<51> in1<52> in1<53> in1<54> in1<55> 
+ in1<56> in1<57> in1<58> in1<59> in1<60> in1<61> in1<62> in1<63> in1<64> 
+ in1<65> in1<66> in1<67> in1<68> in1<69> in1<70> in1<71> in1<72> in1<73> 
+ in1<74> in1<75> in1<76> in1<77> in1<78> in1<79> in1<80> in1<81> in1<82> 
+ in1<83> in1<84> in1<85> in1<86> in1<87> in1<88> in1<89> in1<90> in1<91> 
+ in1<92> in1<93> in1<94> in1<95> in1<96> in1<97> in1<98> in1<99> in1<100> 
+ in1<101> in1<102> in1<103> in1<104> in1<105> in1<106> in1<107> in1<108> 
+ in1<109> in1<110> in1<111> in1<112> in1<113> in1<114> in1<115> in1<116> 
+ in1<117> in1<118> in1<119> in1<120> in1<121> in1<122> in1<123> in1<124> 
+ in1<125> in1<126> in1<127> in2<0> in2<1> in2<2> in2<3> in2<4> in2<5> in2<6> 
+ in2<7> in2<8> in2<9> in2<10> in2<11> in2<12> in2<13> in2<14> in2<15> in2<16> 
+ in2<17> in2<18> in2<19> in2<20> in2<21> in2<22> in2<23> in2<24> in2<25> 
+ in2<26> in2<27> in2<28> in2<29> in2<30> in2<31> in2<32> in2<33> in2<34> 
+ in2<35> in2<36> in2<37> in2<38> in2<39> in2<40> in2<41> in2<42> in2<43> 
+ in2<44> in2<45> in2<46> in2<47> in2<48> in2<49> in2<50> in2<51> in2<52> 
+ in2<53> in2<54> in2<55> in2<56> in2<57> in2<58> in2<59> in2<60> in2<61> 
+ in2<62> in2<63> in2<64> in2<65> in2<66> in2<67> in2<68> in2<69> in2<70> 
+ in2<71> in2<72> in2<73> in2<74> in2<75> in2<76> in2<77> in2<78> in2<79> 
+ in2<80> in2<81> in2<82> in2<83> in2<84> in2<85> in2<86> in2<87> in2<88> 
+ in2<89> in2<90> in2<91> in2<92> in2<93> in2<94> in2<95> in2<96> in2<97> 
+ in2<98> in2<99> in2<100> in2<101> in2<102> in2<103> in2<104> in2<105> 
+ in2<106> in2<107> in2<108> in2<109> in2<110> in2<111> in2<112> in2<113> 
+ in2<114> in2<115> in2<116> in2<117> in2<118> in2<119> in2<120> in2<121> 
+ in2<122> in2<123> in2<124> in2<125> in2<126> in2<127> reg_en sel_en sl<0> 
+ sl<1> sl<2> sl<3> vdd vss wl<0> wl<1> wl<2> wl<3> wl<4> wl<5> wl<6> wl<7> 
+ wl<8> wl<9> wl<10> wl<11> wl<12> wl<13> wl<14> wl<15> wl<16> wl<17> wl<18> 
+ wl<19> wl<20> wl<21> wl<22> wl<23> wl<24> wl<25> wl<26> wl<27> wl<28> wl<29> 
+ wl<30> wl<31> wl<32> wl<33> wl<34> wl<35> wl<36> wl<37> wl<38> wl<39> wl<40> 
+ wl<41> wl<42> wl<43> wl<44> wl<45> wl<46> wl<47> wl<48> wl<49> wl<50> wl<51> 
+ wl<52> wl<53> wl<54> wl<55> wl<56> wl<57> wl<58> wl<59> wl<60> wl<61> wl<62> 
+ wl<63> wl<64> wl<65> wl<66> wl<67> wl<68> wl<69> wl<70> wl<71> wl<72> wl<73> 
+ wl<74> wl<75> wl<76> wl<77> wl<78> wl<79> wl<80> wl<81> wl<82> wl<83> wl<84> 
+ wl<85> wl<86> wl<87> wl<88> wl<89> wl<90> wl<91> wl<92> wl<93> wl<94> wl<95> 
+ wl<96> wl<97> wl<98> wl<99> wl<100> wl<101> wl<102> wl<103> wl<104> wl<105> 
+ wl<106> wl<107> wl<108> wl<109> wl<110> wl<111> wl<112> wl<113> wl<114> 
+ wl<115> wl<116> wl<117> wl<118> wl<119> wl<120> wl<121> wl<122> wl<123> 
+ wl<124> wl<125> wl<126> wl<127>
*.PININFO bl<0>:I bl<1>:I bl<2>:I bl<3>:I col_en:I in1<0>:I in1<1>:I in1<2>:I 
*.PININFO in1<3>:I in1<4>:I in1<5>:I in1<6>:I in1<7>:I in1<8>:I in1<9>:I 
*.PININFO in1<10>:I in1<11>:I in1<12>:I in1<13>:I in1<14>:I in1<15>:I 
*.PININFO in1<16>:I in1<17>:I in1<18>:I in1<19>:I in1<20>:I in1<21>:I 
*.PININFO in1<22>:I in1<23>:I in1<24>:I in1<25>:I in1<26>:I in1<27>:I 
*.PININFO in1<28>:I in1<29>:I in1<30>:I in1<31>:I in1<32>:I in1<33>:I 
*.PININFO in1<34>:I in1<35>:I in1<36>:I in1<37>:I in1<38>:I in1<39>:I 
*.PININFO in1<40>:I in1<41>:I in1<42>:I in1<43>:I in1<44>:I in1<45>:I 
*.PININFO in1<46>:I in1<47>:I in1<48>:I in1<49>:I in1<50>:I in1<51>:I 
*.PININFO in1<52>:I in1<53>:I in1<54>:I in1<55>:I in1<56>:I in1<57>:I 
*.PININFO in1<58>:I in1<59>:I in1<60>:I in1<61>:I in1<62>:I in1<63>:I 
*.PININFO in1<64>:I in1<65>:I in1<66>:I in1<67>:I in1<68>:I in1<69>:I 
*.PININFO in1<70>:I in1<71>:I in1<72>:I in1<73>:I in1<74>:I in1<75>:I 
*.PININFO in1<76>:I in1<77>:I in1<78>:I in1<79>:I in1<80>:I in1<81>:I 
*.PININFO in1<82>:I in1<83>:I in1<84>:I in1<85>:I in1<86>:I in1<87>:I 
*.PININFO in1<88>:I in1<89>:I in1<90>:I in1<91>:I in1<92>:I in1<93>:I 
*.PININFO in1<94>:I in1<95>:I in1<96>:I in1<97>:I in1<98>:I in1<99>:I 
*.PININFO in1<100>:I in1<101>:I in1<102>:I in1<103>:I in1<104>:I in1<105>:I 
*.PININFO in1<106>:I in1<107>:I in1<108>:I in1<109>:I in1<110>:I in1<111>:I 
*.PININFO in1<112>:I in1<113>:I in1<114>:I in1<115>:I in1<116>:I in1<117>:I 
*.PININFO in1<118>:I in1<119>:I in1<120>:I in1<121>:I in1<122>:I in1<123>:I 
*.PININFO in1<124>:I in1<125>:I in1<126>:I in1<127>:I in2<0>:I in2<1>:I 
*.PININFO in2<2>:I in2<3>:I in2<4>:I in2<5>:I in2<6>:I in2<7>:I in2<8>:I 
*.PININFO in2<9>:I in2<10>:I in2<11>:I in2<12>:I in2<13>:I in2<14>:I in2<15>:I 
*.PININFO in2<16>:I in2<17>:I in2<18>:I in2<19>:I in2<20>:I in2<21>:I 
*.PININFO in2<22>:I in2<23>:I in2<24>:I in2<25>:I in2<26>:I in2<27>:I 
*.PININFO in2<28>:I in2<29>:I in2<30>:I in2<31>:I in2<32>:I in2<33>:I 
*.PININFO in2<34>:I in2<35>:I in2<36>:I in2<37>:I in2<38>:I in2<39>:I 
*.PININFO in2<40>:I in2<41>:I in2<42>:I in2<43>:I in2<44>:I in2<45>:I 
*.PININFO in2<46>:I in2<47>:I in2<48>:I in2<49>:I in2<50>:I in2<51>:I 
*.PININFO in2<52>:I in2<53>:I in2<54>:I in2<55>:I in2<56>:I in2<57>:I 
*.PININFO in2<58>:I in2<59>:I in2<60>:I in2<61>:I in2<62>:I in2<63>:I 
*.PININFO in2<64>:I in2<65>:I in2<66>:I in2<67>:I in2<68>:I in2<69>:I 
*.PININFO in2<70>:I in2<71>:I in2<72>:I in2<73>:I in2<74>:I in2<75>:I 
*.PININFO in2<76>:I in2<77>:I in2<78>:I in2<79>:I in2<80>:I in2<81>:I 
*.PININFO in2<82>:I in2<83>:I in2<84>:I in2<85>:I in2<86>:I in2<87>:I 
*.PININFO in2<88>:I in2<89>:I in2<90>:I in2<91>:I in2<92>:I in2<93>:I 
*.PININFO in2<94>:I in2<95>:I in2<96>:I in2<97>:I in2<98>:I in2<99>:I 
*.PININFO in2<100>:I in2<101>:I in2<102>:I in2<103>:I in2<104>:I in2<105>:I 
*.PININFO in2<106>:I in2<107>:I in2<108>:I in2<109>:I in2<110>:I in2<111>:I 
*.PININFO in2<112>:I in2<113>:I in2<114>:I in2<115>:I in2<116>:I in2<117>:I 
*.PININFO in2<118>:I in2<119>:I in2<120>:I in2<121>:I in2<122>:I in2<123>:I 
*.PININFO in2<124>:I in2<125>:I in2<126>:I in2<127>:I reg_en:I sel_en:I 
*.PININFO sl<0>:I sl<1>:I sl<2>:I sl<3>:I wl<0>:I wl<1>:I wl<2>:I wl<3>:I 
*.PININFO wl<4>:I wl<5>:I wl<6>:I wl<7>:I wl<8>:I wl<9>:I wl<10>:I wl<11>:I 
*.PININFO wl<12>:I wl<13>:I wl<14>:I wl<15>:I wl<16>:I wl<17>:I wl<18>:I 
*.PININFO wl<19>:I wl<20>:I wl<21>:I wl<22>:I wl<23>:I wl<24>:I wl<25>:I 
*.PININFO wl<26>:I wl<27>:I wl<28>:I wl<29>:I wl<30>:I wl<31>:I wl<32>:I 
*.PININFO wl<33>:I wl<34>:I wl<35>:I wl<36>:I wl<37>:I wl<38>:I wl<39>:I 
*.PININFO wl<40>:I wl<41>:I wl<42>:I wl<43>:I wl<44>:I wl<45>:I wl<46>:I 
*.PININFO wl<47>:I wl<48>:I wl<49>:I wl<50>:I wl<51>:I wl<52>:I wl<53>:I 
*.PININFO wl<54>:I wl<55>:I wl<56>:I wl<57>:I wl<58>:I wl<59>:I wl<60>:I 
*.PININFO wl<61>:I wl<62>:I wl<63>:I wl<64>:I wl<65>:I wl<66>:I wl<67>:I 
*.PININFO wl<68>:I wl<69>:I wl<70>:I wl<71>:I wl<72>:I wl<73>:I wl<74>:I 
*.PININFO wl<75>:I wl<76>:I wl<77>:I wl<78>:I wl<79>:I wl<80>:I wl<81>:I 
*.PININFO wl<82>:I wl<83>:I wl<84>:I wl<85>:I wl<86>:I wl<87>:I wl<88>:I 
*.PININFO wl<89>:I wl<90>:I wl<91>:I wl<92>:I wl<93>:I wl<94>:I wl<95>:I 
*.PININFO wl<96>:I wl<97>:I wl<98>:I wl<99>:I wl<100>:I wl<101>:I wl<102>:I 
*.PININFO wl<103>:I wl<104>:I wl<105>:I wl<106>:I wl<107>:I wl<108>:I 
*.PININFO wl<109>:I wl<110>:I wl<111>:I wl<112>:I wl<113>:I wl<114>:I 
*.PININFO wl<115>:I wl<116>:I wl<117>:I wl<118>:I wl<119>:I wl<120>:I 
*.PININFO wl<121>:I wl<122>:I wl<123>:I wl<124>:I wl<125>:I wl<126>:I 
*.PININFO wl<127>:I cbl<0>:O cbl<1>:O vdd:B vss:B
XI25097 bl<2> cbl<1> vdd vdd sl<2> vdd vss vss / cell_PIM
XI25095 bl<0> cbl<0> vdd vdd sl<0> vdd vss vss / cell_PIM
XI49 bl<0> cbl<0> vdd vdd sl<0> vdd vss vss / cell_PIM
XI36 bl<2> cbl<1> vdd vdd sl<2> vdd vss vss / cell_PIM
XI25098 bl<3> cbl<1> vdd vdd sl<3> vdd vss vss / cell_PIM2
XI83 bl<1> cbl<0> vdd vdd sl<1> vdd vss vss / cell_PIM2
XI25096 bl<1> cbl<0> vdd vdd sl<1> vdd vss vss / cell_PIM2
XI69 bl<3> cbl<1> vdd vdd sl<3> vdd vss vss / cell_PIM2
XI117 reg_en sel_en net021 vdd vss / nand
XI114 bl<2> net058 q<2> sl<2> vdd vss wl_reg / cell_SRAM
XI113 bl<1> net059 q<1> sl<1> vdd vss wl_reg / cell_SRAM
XI0 bl<0> net060 q<0> sl<0> vdd vss wl_reg / cell_SRAM
XI112 bl<0> bl<1> bl<2> bl<3> cbl<0> cbl<1> col_en in1<112> in1<113> in1<114> 
+ in1<115> in1<116> in1<117> in1<118> in1<119> in1<120> in1<121> in1<122> 
+ in1<123> in1<124> in1<125> in1<126> in1<127> in2<112> in2<113> in2<114> 
+ in2<115> in2<116> in2<117> in2<118> in2<119> in2<120> in2<121> in2<122> 
+ in2<123> in2<124> in2<125> in2<126> in2<127> sel<7> sl<0> sl<1> sl<2> sl<3> 
+ vdd vss wl<112> wl<113> wl<114> wl<115> wl<116> wl<117> wl<118> wl<119> 
+ wl<120> wl<121> wl<122> wl<123> wl<124> wl<125> wl<126> wl<127> / 
+ array_test_16r_cell
XI111 bl<0> bl<1> bl<2> bl<3> cbl<0> cbl<1> col_en in1<96> in1<97> in1<98> 
+ in1<99> in1<100> in1<101> in1<102> in1<103> in1<104> in1<105> in1<106> 
+ in1<107> in1<108> in1<109> in1<110> in1<111> in2<96> in2<97> in2<98> in2<99> 
+ in2<100> in2<101> in2<102> in2<103> in2<104> in2<105> in2<106> in2<107> 
+ in2<108> in2<109> in2<110> in2<111> sel<6> sl<0> sl<1> sl<2> sl<3> vdd vss 
+ wl<96> wl<97> wl<98> wl<99> wl<100> wl<101> wl<102> wl<103> wl<104> wl<105> 
+ wl<106> wl<107> wl<108> wl<109> wl<110> wl<111> / array_test_16r_cell
XI110 bl<0> bl<1> bl<2> bl<3> cbl<0> cbl<1> col_en in1<80> in1<81> in1<82> 
+ in1<83> in1<84> in1<85> in1<86> in1<87> in1<88> in1<89> in1<90> in1<91> 
+ in1<92> in1<93> in1<94> in1<95> in2<80> in2<81> in2<82> in2<83> in2<84> 
+ in2<85> in2<86> in2<87> in2<88> in2<89> in2<90> in2<91> in2<92> in2<93> 
+ in2<94> in2<95> sel<5> sl<0> sl<1> sl<2> sl<3> vdd vss wl<80> wl<81> wl<82> 
+ wl<83> wl<84> wl<85> wl<86> wl<87> wl<88> wl<89> wl<90> wl<91> wl<92> wl<93> 
+ wl<94> wl<95> / array_test_16r_cell
XI109 bl<0> bl<1> bl<2> bl<3> cbl<0> cbl<1> col_en in1<64> in1<65> in1<66> 
+ in1<67> in1<68> in1<69> in1<70> in1<71> in1<72> in1<73> in1<74> in1<75> 
+ in1<76> in1<77> in1<78> in1<79> in2<64> in2<65> in2<66> in2<67> in2<68> 
+ in2<69> in2<70> in2<71> in2<72> in2<73> in2<74> in2<75> in2<76> in2<77> 
+ in2<78> in2<79> sel<4> sl<0> sl<1> sl<2> sl<3> vdd vss wl<64> wl<65> wl<66> 
+ wl<67> wl<68> wl<69> wl<70> wl<71> wl<72> wl<73> wl<74> wl<75> wl<76> wl<77> 
+ wl<78> wl<79> / array_test_16r_cell
XI108 bl<0> bl<1> bl<2> bl<3> cbl<0> cbl<1> col_en in1<48> in1<49> in1<50> 
+ in1<51> in1<52> in1<53> in1<54> in1<55> in1<56> in1<57> in1<58> in1<59> 
+ in1<60> in1<61> in1<62> in1<63> in2<48> in2<49> in2<50> in2<51> in2<52> 
+ in2<53> in2<54> in2<55> in2<56> in2<57> in2<58> in2<59> in2<60> in2<61> 
+ in2<62> in2<63> sel<3> sl<0> sl<1> sl<2> sl<3> vdd vss wl<48> wl<49> wl<50> 
+ wl<51> wl<52> wl<53> wl<54> wl<55> wl<56> wl<57> wl<58> wl<59> wl<60> wl<61> 
+ wl<62> wl<63> / array_test_16r_cell
XI107 bl<0> bl<1> bl<2> bl<3> cbl<0> cbl<1> col_en in1<32> in1<33> in1<34> 
+ in1<35> in1<36> in1<37> in1<38> in1<39> in1<40> in1<41> in1<42> in1<43> 
+ in1<44> in1<45> in1<46> in1<47> in2<32> in2<33> in2<34> in2<35> in2<36> 
+ in2<37> in2<38> in2<39> in2<40> in2<41> in2<42> in2<43> in2<44> in2<45> 
+ in2<46> in2<47> sel<2> sl<0> sl<1> sl<2> sl<3> vdd vss wl<32> wl<33> wl<34> 
+ wl<35> wl<36> wl<37> wl<38> wl<39> wl<40> wl<41> wl<42> wl<43> wl<44> wl<45> 
+ wl<46> wl<47> / array_test_16r_cell
XI106 bl<0> bl<1> bl<2> bl<3> cbl<0> cbl<1> col_en in1<16> in1<17> in1<18> 
+ in1<19> in1<20> in1<21> in1<22> in1<23> in1<24> in1<25> in1<26> in1<27> 
+ in1<28> in1<29> in1<30> in1<31> in2<16> in2<17> in2<18> in2<19> in2<20> 
+ in2<21> in2<22> in2<23> in2<24> in2<25> in2<26> in2<27> in2<28> in2<29> 
+ in2<30> in2<31> sel<1> sl<0> sl<1> sl<2> sl<3> vdd vss wl<16> wl<17> wl<18> 
+ wl<19> wl<20> wl<21> wl<22> wl<23> wl<24> wl<25> wl<26> wl<27> wl<28> wl<29> 
+ wl<30> wl<31> / array_test_16r_cell
XI105 bl<0> bl<1> bl<2> bl<3> cbl<0> cbl<1> col_en in1<0> in1<1> in1<2> in1<3> 
+ in1<4> in1<5> in1<6> in1<7> in1<8> in1<9> in1<10> in1<11> in1<12> in1<13> 
+ in1<14> in1<15> in2<0> in2<1> in2<2> in2<3> in2<4> in2<5> in2<6> in2<7> 
+ in2<8> in2<9> in2<10> in2<11> in2<12> in2<13> in2<14> in2<15> sel<0> sl<0> 
+ sl<1> sl<2> sl<3> vdd vss wl<0> wl<1> wl<2> wl<3> wl<4> wl<5> wl<6> wl<7> 
+ wl<8> wl<9> wl<10> wl<11> wl<12> wl<13> wl<14> wl<15> / array_test_16r_cell
XI116 col_en q<0> q<1> q<2> sel<0> sel<1> sel<2> sel<3> sel<4> sel<5> sel<6> 
+ sel<7> vdd vss / 3x8decoder_2
XI118 net021 wl_reg vdd vss / inv1
.ENDS

************************************************************************
* Library Name: SRAM_ChargePulsation
* Cell Name:    array_test
* View Name:    schematic
************************************************************************

.SUBCKT array_test bl<0> bl<1> bl<2> bl<3> bl<4> bl<5> bl<6> bl<7> bl<8> bl<9> 
+ bl<10> bl<11> bl<12> bl<13> bl<14> bl<15> bl<16> bl<17> bl<18> bl<19> bl<20> 
+ bl<21> bl<22> bl<23> bl<24> bl<25> bl<26> bl<27> bl<28> bl<29> bl<30> bl<31> 
+ bl<32> bl<33> bl<34> bl<35> bl<36> bl<37> bl<38> bl<39> bl<40> bl<41> bl<42> 
+ bl<43> bl<44> bl<45> bl<46> bl<47> bl<48> bl<49> bl<50> bl<51> bl<52> bl<53> 
+ bl<54> bl<55> bl<56> bl<57> bl<58> bl<59> bl<60> bl<61> bl<62> bl<63> cbl<0> 
+ cbl<1> cbl<2> cbl<3> cbl<4> cbl<5> cbl<6> cbl<7> cbl<8> cbl<9> cbl<10> 
+ cbl<11> cbl<12> cbl<13> cbl<14> cbl<15> cbl<16> cbl<17> cbl<18> cbl<19> 
+ cbl<20> cbl<21> cbl<22> cbl<23> cbl<24> cbl<25> cbl<26> cbl<27> cbl<28> 
+ cbl<29> cbl<30> cbl<31> col_en in1<0> in1<1> in1<2> in1<3> in1<4> in1<5> 
+ in1<6> in1<7> in1<8> in1<9> in1<10> in1<11> in1<12> in1<13> in1<14> in1<15> 
+ in1<16> in1<17> in1<18> in1<19> in1<20> in1<21> in1<22> in1<23> in1<24> 
+ in1<25> in1<26> in1<27> in1<28> in1<29> in1<30> in1<31> in1<32> in1<33> 
+ in1<34> in1<35> in1<36> in1<37> in1<38> in1<39> in1<40> in1<41> in1<42> 
+ in1<43> in1<44> in1<45> in1<46> in1<47> in1<48> in1<49> in1<50> in1<51> 
+ in1<52> in1<53> in1<54> in1<55> in1<56> in1<57> in1<58> in1<59> in1<60> 
+ in1<61> in1<62> in1<63> in1<64> in1<65> in1<66> in1<67> in1<68> in1<69> 
+ in1<70> in1<71> in1<72> in1<73> in1<74> in1<75> in1<76> in1<77> in1<78> 
+ in1<79> in1<80> in1<81> in1<82> in1<83> in1<84> in1<85> in1<86> in1<87> 
+ in1<88> in1<89> in1<90> in1<91> in1<92> in1<93> in1<94> in1<95> in1<96> 
+ in1<97> in1<98> in1<99> in1<100> in1<101> in1<102> in1<103> in1<104> 
+ in1<105> in1<106> in1<107> in1<108> in1<109> in1<110> in1<111> in1<112> 
+ in1<113> in1<114> in1<115> in1<116> in1<117> in1<118> in1<119> in1<120> 
+ in1<121> in1<122> in1<123> in1<124> in1<125> in1<126> in1<127> in2<0> in2<1> 
+ in2<2> in2<3> in2<4> in2<5> in2<6> in2<7> in2<8> in2<9> in2<10> in2<11> 
+ in2<12> in2<13> in2<14> in2<15> in2<16> in2<17> in2<18> in2<19> in2<20> 
+ in2<21> in2<22> in2<23> in2<24> in2<25> in2<26> in2<27> in2<28> in2<29> 
+ in2<30> in2<31> in2<32> in2<33> in2<34> in2<35> in2<36> in2<37> in2<38> 
+ in2<39> in2<40> in2<41> in2<42> in2<43> in2<44> in2<45> in2<46> in2<47> 
+ in2<48> in2<49> in2<50> in2<51> in2<52> in2<53> in2<54> in2<55> in2<56> 
+ in2<57> in2<58> in2<59> in2<60> in2<61> in2<62> in2<63> in2<64> in2<65> 
+ in2<66> in2<67> in2<68> in2<69> in2<70> in2<71> in2<72> in2<73> in2<74> 
+ in2<75> in2<76> in2<77> in2<78> in2<79> in2<80> in2<81> in2<82> in2<83> 
+ in2<84> in2<85> in2<86> in2<87> in2<88> in2<89> in2<90> in2<91> in2<92> 
+ in2<93> in2<94> in2<95> in2<96> in2<97> in2<98> in2<99> in2<100> in2<101> 
+ in2<102> in2<103> in2<104> in2<105> in2<106> in2<107> in2<108> in2<109> 
+ in2<110> in2<111> in2<112> in2<113> in2<114> in2<115> in2<116> in2<117> 
+ in2<118> in2<119> in2<120> in2<121> in2<122> in2<123> in2<124> in2<125> 
+ in2<126> in2<127> reg_en sel<0> sel<1> sel<2> sel<3> sel<4> sel<5> sel<6> 
+ sel<7> sel<8> sel<9> sel<10> sel<11> sel<12> sel<13> sel<14> sel<15> sl<0> 