************************************************************************
* auCdl Netlist:
* 
* Library Name:  SRAM_ChargePulsation
* Top Cell Name: SRAM_CIM
* View Name:     schematic
* Netlisted on:  Mar 31 15:49:26 2022
************************************************************************

*.BIPOLAR
*.RESI = 2000 
*.RESVAL
*.CAPVAL
*.DIOPERI
*.DIOAREA
*.EQUATION
*.MEGA
.PARAM

.lib 'models/hspice/ms018_enhanced_v1p11.lib' TT
.lib 'models/hspice/ms018_enhanced_v1p11.lib' RES_TT
.lib 'models/hspice/mse018_v1p11_rf.lib' MIM_TT
.options MACMOD=1

************************************************************************
* Library Name: SRAM_ChargePulsation
* Cell Name:    cell_SRAM
* View Name:    schematic
************************************************************************

.SUBCKT cell_SRAM BL Q QN SL VDD VSS WL
*.PININFO WL:I Q:O QN:O BL:B SL:B VDD:B VSS:B
XNM1 Q WL SL VSS n18_ckt L=220n W=220n NF=1 MR=1
XNM0 BL WL QN VSS n18_ckt L=220n W=220n NF=1 MR=1
XNM135 Q QN VSS VSS n18_ckt L=220n W=220n NF=1 MR=1
XNM134 QN Q VSS VSS n18_ckt L=220n W=220n NF=1 MR=1
XPM97 Q QN VDD VDD p18_ckt L=220n W=220n NF=1 MR=1
XPM96 QN Q VDD VDD p18_ckt L=220n W=220n NF=1 MR=1
.ENDS

************************************************************************
* Library Name: SRAM_ChargePulsation
* Cell Name:    cell_PIM
* View Name:    schematic
************************************************************************

.SUBCKT cell_PIM bl cbl in1 in2 sl vdd vss wl
*.PININFO bl:I in1:I in2:I sl:I wl:I cbl:B vdd:B vss:B
XI0 bl q qn sl vdd vss wl / cell_SRAM
XM18 net29 qn vss vss n33_ckt L=350n W=350n NF=1 MR=1
XM16 net29 in1 net28 vdd p33_ckt L=300n W=300n NF=1 MR=1
XM0 cbl in2 net29 vdd p33_ckt L=300n W=300n NF=1 MR=1
XNM0 vdd q net28 vss n18_ckt L=220n W=220n NF=1 MR=1
.ENDS

************************************************************************
* Library Name: SRAM_ChargePulsation
* Cell Name:    cell_PIM2
* View Name:    schematic
************************************************************************

.SUBCKT cell_PIM2 bl cbl in1 in2 sl vdd vss wl
*.PININFO bl:I in1:I in2:I sl:I wl:I cbl:B vdd:B vss:B
XI0 bl q qn sl vdd vss wl / cell_SRAM
XM4 net07 qn vss vss n33_ckt L=350n W=350n NF=1 MR=1
XM18 net5 qn vss vss n33_ckt L=350n W=350n NF=1 MR=1
XM2 net07 in1 net7 vdd p33_ckt L=300n W=300n NF=1 MR=1
XM1 cbl in2 net07 vdd p33_ckt L=300n W=300n NF=1 MR=1
XM16 net5 in1 net28 vdd p33_ckt L=300n W=300n NF=1 MR=1
XM0 cbl in2 net5 vdd p33_ckt L=300n W=300n NF=1 MR=1
XNM1 vdd q net7 vss n18_ckt L=220n W=220n NF=1 MR=1
XNM0 vdd q net28 vss n18_ckt L=220n W=220n NF=1 MR=1
.ENDS

************************************************************************
* Library Name: SRAM_ChargePulsation
* Cell Name:    array
* View Name:    schematic
************************************************************************

.SUBCKT array bl<0> bl<1> bl<2> bl<3> bl<4> bl<5> bl<6> bl<7> bl<8> bl<9> 
+ bl<10> bl<11> bl<12> bl<13> bl<14> bl<15> bl<16> bl<17> bl<18> bl<19> bl<20> 
+ bl<21> bl<22> bl<23> bl<24> bl<25> bl<26> bl<27> bl<28> bl<29> bl<30> bl<31> 
+ bl<32> bl<33> bl<34> bl<35> bl<36> bl<37> bl<38> bl<39> bl<40> bl<41> bl<42> 
+ bl<43> bl<44> bl<45> bl<46> bl<47> bl<48> bl<49> bl<50> bl<51> bl<52> bl<53> 
+ bl<54> bl<55> bl<56> bl<57> bl<58> bl<59> bl<60> bl<61> bl<62> bl<63> 
+ blbuf<0> blbuf<1> blbuf<2> blbuf<3> blbuf<4> blbuf<5> blbuf<6> blbuf<7> 
+ blbuf<8> blbuf<9> blbuf<10> blbuf<11> blbuf<12> blbuf<13> blbuf<14> 
+ blbuf<15> cbl<0> cbl<1> cbl<2> cbl<3> cbl<4> cbl<5> cbl<6> cbl<7> cbl<8> 
+ cbl<9> cbl<10> cbl<11> cbl<12> cbl<13> cbl<14> cbl<15> cbl<16> cbl<17> 
+ cbl<18> cbl<19> cbl<20> cbl<21> cbl<22> cbl<23> cbl<24> cbl<25> cbl<26> 
+ cbl<27> cbl<28> cbl<29> cbl<30> cbl<31> in1<0> in1<1> in1<2> in1<3> in1<4> 
+ in1<5> in1<6> in1<7> in1<8> in1<9> in1<10> in1<11> in1<12> in1<13> in1<14> 
+ in1<15> in1<16> in1<17> in1<18> in1<19> in1<20> in1<21> in1<22> in1<23> 
+ in1<24> in1<25> in1<26> in1<27> in1<28> in1<29> in1<30> in1<31> in1<32> 
+ in1<33> in1<34> in1<35> in1<36> in1<37> in1<38> in1<39> in1<40> in1<41> 
+ in1<42> in1<43> in1<44> in1<45> in1<46> in1<47> in1<48> in1<49> in1<50> 
+ in1<51> in1<52> in1<53> in1<54> in1<55> in1<56> in1<57> in1<58> in1<59> 
+ in1<60> in1<61> in1<62> in1<63> in1<64> in1<65> in1<66> in1<67> in1<68> 
+ in1<69> in1<70> in1<71> in1<72> in1<73> in1<74> in1<75> in1<76> in1<77> 
+ in1<78> in1<79> in1<80> in1<81> in1<82> in1<83> in1<84> in1<85> in1<86> 
+ in1<87> in1<88> in1<89> in1<90> in1<91> in1<92> in1<93> in1<94> in1<95> 
+ in1<96> in1<97> in1<98> in1<99> in1<100> in1<101> in1<102> in1<103> in1<104> 
+ in1<105> in1<106> in1<107> in1<108> in1<109> in1<110> in1<111> in1<112> 
+ in1<113> in1<114> in1<115> in1<116> in1<117> in1<118> in1<119> in1<120> 
+ in1<121> in1<122> in1<123> in1<124> in1<125> in1<126> in1<127> in2<0> in2<1> 
+ in2<2> in2<3> in2<4> in2<5> in2<6> in2<7> in2<8> in2<9> in2<10> in2<11> 
+ in2<12> in2<13> in2<14> in2<15> in2<16> in2<17> in2<18> in2<19> in2<20> 
+ in2<21> in2<22> in2<23> in2<24> in2<25> in2<26> in2<27> in2<28> in2<29> 
+ in2<30> in2<31> in2<32> in2<33> in2<34> in2<35> in2<36> in2<37> in2<38> 
+ in2<39> in2<40> in2<41> in2<42> in2<43> in2<44> in2<45> in2<46> in2<47> 
+ in2<48> in2<49> in2<50> in2<51> in2<52> in2<53> in2<54> in2<55> in2<56> 
+ in2<57> in2<58> in2<59> in2<60> in2<61> in2<62> in2<63> in2<64> in2<65> 
+ in2<66> in2<67> in2<68> in2<69> in2<70> in2<71> in2<72> in2<73> in2<74> 
+ in2<75> in2<76> in2<77> in2<78> in2<79> in2<80> in2<81> in2<82> in2<83> 
+ in2<84> in2<85> in2<86> in2<87> in2<88> in2<89> in2<90> in2<91> in2<92> 
+ in2<93> in2<94> in2<95> in2<96> in2<97> in2<98> in2<99> in2<100> in2<101> 
+ in2<102> in2<103> in2<104> in2<105> in2<106> in2<107> in2<108> in2<109> 
+ in2<110> in2<111> in2<112> in2<113> in2<114> in2<115> in2<116> in2<117> 
+ in2<118> in2<119> in2<120> in2<121> in2<122> in2<123> in2<124> in2<125> 
+ in2<126> in2<127> sl<0> sl<1> sl<2> sl<3> sl<4> sl<5> sl<6> sl<7> sl<8> 
+ sl<9> sl<10> sl<11> sl<12> sl<13> sl<14> sl<15> sl<16> sl<17> sl<18> sl<19> 
+ sl<20> sl<21> sl<22> sl<23> sl<24> sl<25> sl<26> sl<27> sl<28> sl<29> sl<30> 
+ sl<31> sl<32> sl<33> sl<34> sl<35> sl<36> sl<37> sl<38> sl<39> sl<40> sl<41> 
+ sl<42> sl<43> sl<44> sl<45> sl<46> sl<47> sl<48> sl<49> sl<50> sl<51> sl<52> 
+ sl<53> sl<54> sl<55> sl<56> sl<57> sl<58> sl<59> sl<60> sl<61> sl<62> sl<63> 
+ slbuf<0> slbuf<1> slbuf<2> slbuf<3> slbuf<4> slbuf<5> slbuf<6> slbuf<7> 
+ slbuf<8> slbuf<9> slbuf<10> slbuf<11> slbuf<12> slbuf<13> slbuf<14> 
+ slbuf<15> vdd vss wl<0> wl<1> wl<2> wl<3> wl<4> wl<5> wl<6> wl<7> wl<8> 
+ wl<9> wl<10> wl<11> wl<12> wl<13> wl<14> wl<15> wl<16> wl<17> wl<18> wl<19> 
+ wl<20> wl<21> wl<22> wl<23> wl<24> wl<25> wl<26> wl<27> wl<28> wl<29> wl<30> 
+ wl<31> wl<32> wl<33> wl<34> wl<35> wl<36> wl<37> wl<38> wl<39> wl<40> wl<41> 
+ wl<42> wl<43> wl<44> wl<45> wl<46> wl<47> wl<48> wl<49> wl<50> wl<51> wl<52> 
+ wl<53> wl<54> wl<55> wl<56> wl<57> wl<58> wl<59> wl<60> wl<61> wl<62> wl<63> 
+ wl<64> wl<65> wl<66> wl<67> wl<68> wl<69> wl<70> wl<71> wl<72> wl<73> wl<74> 
+ wl<75> wl<76> wl<77> wl<78> wl<79> wl<80> wl<81> wl<82> wl<83> wl<84> wl<85> 
+ wl<86> wl<87> wl<88> wl<89> wl<90> wl<91> wl<92> wl<93> wl<94> wl<95> wl<96> 
+ wl<97> wl<98> wl<99> wl<100> wl<101> wl<102> wl<103> wl<104> wl<105> wl<106> 
+ wl<107> wl<108> wl<109> wl<110> wl<111> wl<112> wl<113> wl<114> wl<115> 
+ wl<116> wl<117> wl<118> wl<119> wl<120> wl<121> wl<122> wl<123> wl<124> 
+ wl<125> wl<126> wl<127>
*.PININFO bl<0>:I bl<1>:I bl<2>:I bl<3>:I bl<4>:I bl<5>:I bl<6>:I bl<7>:I 
*.PININFO bl<8>:I bl<9>:I bl<10>:I bl<11>:I bl<12>:I bl<13>:I bl<14>:I 
*.PININFO bl<15>:I bl<16>:I bl<17>:I bl<18>:I bl<19>:I bl<20>:I bl<21>:I 
*.PININFO bl<22>:I bl<23>:I bl<24>:I bl<25>:I bl<26>:I bl<27>:I bl<28>:I 
*.PININFO bl<29>:I bl<30>:I bl<31>:I bl<32>:I bl<33>:I bl<34>:I bl<35>:I 
*.PININFO bl<36>:I bl<37>:I bl<38>:I bl<39>:I bl<40>:I bl<41>:I bl<42>:I 
*.PININFO bl<43>:I bl<44>:I bl<45>:I bl<46>:I bl<47>:I bl<48>:I bl<49>:I 
*.PININFO bl<50>:I bl<51>:I bl<52>:I bl<53>:I bl<54>:I bl<55>:I bl<56>:I 
*.PININFO bl<57>:I bl<58>:I bl<59>:I bl<60>:I bl<61>:I bl<62>:I bl<63>:I 
*.PININFO in1<0>:I in1<1>:I in1<2>:I in1<3>:I in1<4>:I in1<5>:I in1<6>:I 
*.PININFO in1<7>:I in1<8>:I in1<9>:I in1<10>:I in1<11>:I in1<12>:I in1<13>:I 
*.PININFO in1<14>:I in1<15>:I in1<16>:I in1<17>:I in1<18>:I in1<19>:I 
*.PININFO in1<20>:I in1<21>:I in1<22>:I in1<23>:I in1<24>:I in1<25>:I 
*.PININFO in1<26>:I in1<27>:I in1<28>:I in1<29>:I in1<30>:I in1<31>:I 
*.PININFO in1<32>:I in1<33>:I in1<34>:I in1<35>:I in1<36>:I in1<37>:I 
*.PININFO in1<38>:I in1<39>:I in1<40>:I in1<41>:I in1<42>:I in1<43>:I 
*.PININFO in1<44>:I in1<45>:I in1<46>:I in1<47>:I in1<48>:I in1<49>:I 
*.PININFO in1<50>:I in1<51>:I in1<52>:I in1<53>:I in1<54>:I in1<55>:I 
*.PININFO in1<56>:I in1<57>:I in1<58>:I in1<59>:I in1<60>:I in1<61>:I 
*.PININFO in1<62>:I in1<63>:I in1<64>:I in1<65>:I in1<66>:I in1<67>:I 
*.PININFO in1<68>:I in1<69>:I in1<70>:I in1<71>:I in1<72>:I in1<73>:I 
*.PININFO in1<74>:I in1<75>:I in1<76>:I in1<77>:I in1<78>:I in1<79>:I 
*.PININFO in1<80>:I in1<81>:I in1<82>:I in1<83>:I in1<84>:I in1<85>:I 
*.PININFO in1<86>:I in1<87>:I in1<88>:I in1<89>:I in1<90>:I in1<91>:I 
*.PININFO in1<92>:I in1<93>:I in1<94>:I in1<95>:I in1<96>:I in1<97>:I 
*.PININFO in1<98>:I in1<99>:I in1<100>:I in1<101>:I in1<102>:I in1<103>:I 
*.PININFO in1<104>:I in1<105>:I in1<106>:I in1<107>:I in1<108>:I in1<109>:I 
*.PININFO in1<110>:I in1<111>:I in1<112>:I in1<113>:I in1<114>:I in1<115>:I 
*.PININFO in1<116>:I in1<117>:I in1<118>:I in1<119>:I in1<120>:I in1<121>:I 
*.PININFO in1<122>:I in1<123>:I in1<124>:I in1<125>:I in1<126>:I in1<127>:I 
*.PININFO in2<0>:I in2<1>:I in2<2>:I in2<3>:I in2<4>:I in2<5>:I in2<6>:I 
*.PININFO in2<7>:I in2<8>:I in2<9>:I in2<10>:I in2<11>:I in2<12>:I in2<13>:I 
*.PININFO in2<14>:I in2<15>:I in2<16>:I in2<17>:I in2<18>:I in2<19>:I 
*.PININFO in2<20>:I in2<21>:I in2<22>:I in2<23>:I in2<24>:I in2<25>:I 
*.PININFO in2<26>:I in2<27>:I in2<28>:I in2<29>:I in2<30>:I in2<31>:I 
*.PININFO in2<32>:I in2<33>:I in2<34>:I in2<35>:I in2<36>:I in2<37>:I 
*.PININFO in2<38>:I in2<39>:I in2<40>:I in2<41>:I in2<42>:I in2<43>:I 
*.PININFO in2<44>:I in2<45>:I in2<46>:I in2<47>:I in2<48>:I in2<49>:I 
*.PININFO in2<50>:I in2<51>:I in2<52>:I in2<53>:I in2<54>:I in2<55>:I 
*.PININFO in2<56>:I in2<57>:I in2<58>:I in2<59>:I in2<60>:I in2<61>:I 
*.PININFO in2<62>:I in2<63>:I in2<64>:I in2<65>:I in2<66>:I in2<67>:I 
*.PININFO in2<68>:I in2<69>:I in2<70>:I in2<71>:I in2<72>:I in2<73>:I 
*.PININFO in2<74>:I in2<75>:I in2<76>:I in2<77>:I in2<78>:I in2<79>:I 
*.PININFO in2<80>:I in2<81>:I in2<82>:I in2<83>:I in2<84>:I in2<85>:I 
*.PININFO in2<86>:I in2<87>:I in2<88>:I in2<89>:I in2<90>:I in2<91>:I 
*.PININFO in2<92>:I in2<93>:I in2<94>:I in2<95>:I in2<96>:I in2<97>:I 
*.PININFO in2<98>:I in2<99>:I in2<100>:I in2<101>:I in2<102>:I in2<103>:I 
*.PININFO in2<104>:I in2<105>:I in2<106>:I in2<107>:I in2<108>:I in2<109>:I 
*.PININFO in2<110>:I in2<111>:I in2<112>:I in2<113>:I in2<114>:I in2<115>:I 
*.PININFO in2<116>:I in2<117>:I in2<118>:I in2<119>:I in2<120>:I in2<121>:I 
*.PININFO in2<122>:I in2<123>:I in2<124>:I in2<125>:I in2<126>:I in2<127>:I 
*.PININFO sl<0>:I sl<1>:I sl<2>:I sl<3>:I sl<4>:I sl<5>:I sl<6>:I sl<7>:I 
*.PININFO sl<8>:I sl<9>:I sl<10>:I sl<11>:I sl<12>:I sl<13>:I sl<14>:I 
*.PININFO sl<15>:I sl<16>:I sl<17>:I sl<18>:I sl<19>:I sl<20>:I sl<21>:I 
*.PININFO sl<22>:I sl<23>:I sl<24>:I sl<25>:I sl<26>:I sl<27>:I sl<28>:I 
*.PININFO sl<29>:I sl<30>:I sl<31>:I sl<32>:I sl<33>:I sl<34>:I sl<35>:I 
*.PININFO sl<36>:I sl<37>:I sl<38>:I sl<39>:I sl<40>:I sl<41>:I sl<42>:I 
*.PININFO sl<43>:I sl<44>:I sl<45>:I sl<46>:I sl<47>:I sl<48>:I sl<49>:I 
*.PININFO sl<50>:I sl<51>:I sl<52>:I sl<53>:I sl<54>:I sl<55>:I sl<56>:I 
*.PININFO sl<57>:I sl<58>:I sl<59>:I sl<60>:I sl<61>:I sl<62>:I sl<63>:I 
*.PININFO wl<0>:I wl<1>:I wl<2>:I wl<3>:I wl<4>:I wl<5>:I wl<6>:I wl<7>:I 
*.PININFO wl<8>:I wl<9>:I wl<10>:I wl<11>:I wl<12>:I wl<13>:I wl<14>:I 
*.PININFO wl<15>:I wl<16>:I wl<17>:I wl<18>:I wl<19>:I wl<20>:I wl<21>:I 
*.PININFO wl<22>:I wl<23>:I wl<24>:I wl<25>:I wl<26>:I wl<27>:I wl<28>:I 
*.PININFO wl<29>:I wl<30>:I wl<31>:I wl<32>:I wl<33>:I wl<34>:I wl<35>:I 
*.PININFO wl<36>:I wl<37>:I wl<38>:I wl<39>:I wl<40>:I wl<41>:I wl<42>:I 
*.PININFO wl<43>:I wl<44>:I wl<45>:I wl<46>:I wl<47>:I wl<48>:I wl<49>:I 
*.PININFO wl<50>:I wl<51>:I wl<52>:I wl<53>:I wl<54>:I wl<55>:I wl<56>:I 
*.PININFO wl<57>:I wl<58>:I wl<59>:I wl<60>:I wl<61>:I wl<62>:I wl<63>:I 
*.PININFO wl<64>:I wl<65>:I wl<66>:I wl<67>:I wl<68>:I wl<69>:I wl<70>:I 
*.PININFO wl<71>:I wl<72>:I wl<73>:I wl<74>:I wl<75>:I wl<76>:I wl<77>:I 
*.PININFO wl<78>:I wl<79>:I wl<80>:I wl<81>:I wl<82>:I wl<83>:I wl<84>:I 
*.PININFO wl<85>:I wl<86>:I wl<87>:I wl<88>:I wl<89>:I wl<90>:I wl<91>:I 
*.PININFO wl<92>:I wl<93>:I wl<94>:I wl<95>:I wl<96>:I wl<97>:I wl<98>:I 
*.PININFO wl<99>:I wl<100>:I wl<101>:I wl<102>:I wl<103>:I wl<104>:I wl<105>:I 
*.PININFO wl<106>:I wl<107>:I wl<108>:I wl<109>:I wl<110>:I wl<111>:I 
*.PININFO wl<112>:I wl<113>:I wl<114>:I wl<115>:I wl<116>:I wl<117>:I 
*.PININFO wl<118>:I wl<119>:I wl<120>:I wl<121>:I wl<122>:I wl<123>:I 
*.PININFO wl<124>:I wl<125>:I wl<126>:I wl<127>:I blbuf<0>:B blbuf<1>:B 
*.PININFO blbuf<2>:B blbuf<3>:B blbuf<4>:B blbuf<5>:B blbuf<6>:B blbuf<7>:B 
*.PININFO blbuf<8>:B blbuf<9>:B blbuf<10>:B blbuf<11>:B blbuf<12>:B 
*.PININFO blbuf<13>:B blbuf<14>:B blbuf<15>:B cbl<0>:B cbl<1>:B cbl<2>:B 
*.PININFO cbl<3>:B cbl<4>:B cbl<5>:B cbl<6>:B cbl<7>:B cbl<8>:B cbl<9>:B 
*.PININFO cbl<10>:B cbl<11>:B cbl<12>:B cbl<13>:B cbl<14>:B cbl<15>:B 
*.PININFO cbl<16>:B cbl<17>:B cbl<18>:B cbl<19>:B cbl<20>:B cbl<21>:B 
*.PININFO cbl<22>:B cbl<23>:B cbl<24>:B cbl<25>:B cbl<26>:B cbl<27>:B 
*.PININFO cbl<28>:B cbl<29>:B cbl<30>:B cbl<31>:B slbuf<0>:B slbuf<1>:B 
*.PININFO slbuf<2>:B slbuf<3>:B slbuf<4>:B slbuf<5>:B slbuf<6>:B slbuf<7>:B 
*.PININFO slbuf<8>:B slbuf<9>:B slbuf<10>:B slbuf<11>:B slbuf<12>:B 
*.PININFO slbuf<13>:B slbuf<14>:B slbuf<15>:B vdd:B vss:B
XI17168 bl<2> cbl<1> in1<61> in2<61> sl<2> vdd vss wl<61> / cell_PIM
XI17166 bl<2> cbl<1> in1<59> in2<59> sl<2> vdd vss wl<59> / cell_PIM
XI17167 bl<2> cbl<1> in1<60> in2<60> sl<2> vdd vss wl<60> / cell_PIM
XI25357 vss vss in1<0> in2<0> vss vdd vss wl<0> / cell_PIM
XI25358 vss vss vdd vdd vss vdd vss vss / cell_PIM
XI25354 vss vss in1<4> in2<4> vss vdd vss wl<4> / cell_PIM
XI25355 vss vss in1<1> in2<1> vss vdd vss wl<1> / cell_PIM
XI25356 vss vss in1<2> in2<2> vss vdd vss wl<2> / cell_PIM
XI24707 bl<62> cbl<31> in1<11> in2<11> sl<62> vdd vss wl<11> / cell_PIM
XI24708 bl<62> cbl<31> in1<9> in2<9> sl<62> vdd vss wl<9> / cell_PIM
XI24705 bl<62> cbl<31> in1<10> in2<10> sl<62> vdd vss wl<10> / cell_PIM
XI24706 bl<62> cbl<31> in1<12> in2<12> sl<62> vdd vss wl<12> / cell_PIM
XI24057 bl<54> cbl<27> in1<29> in2<29> sl<54> vdd vss wl<29> / cell_PIM
XI24058 bl<54> cbl<27> in1<31> in2<31> sl<54> vdd vss wl<31> / cell_PIM
XI22884 bl<62> cbl<31> in1<66> in2<66> sl<62> vdd vss wl<66> / cell_PIM
XI22885 bl<62> cbl<31> in1<65> in2<65> sl<62> vdd vss wl<65> / cell_PIM
XI22237 bl<54> cbl<27> in1<84> in2<84> sl<54> vdd vss wl<84> / cell_PIM
XI22234 bl<54> cbl<27> in1<88> in2<88> sl<54> vdd vss wl<88> / cell_PIM
XI22235 bl<54> cbl<27> in1<86> in2<86> sl<54> vdd vss wl<86> / cell_PIM
XI22236 bl<54> cbl<27> in1<85> in2<85> sl<54> vdd vss wl<85> / cell_PIM
XI21587 bl<50> cbl<25> in1<106> in2<106> sl<50> vdd vss wl<106> / cell_PIM
XI21588 bl<50> cbl<25> in1<107> in2<107> sl<50> vdd vss wl<107> / cell_PIM
XI20937 bl<44> cbl<22> in1<125> in2<125> sl<44> vdd vss wl<125> / cell_PIM
XI20938 bl<44> cbl<22> in1<126> in2<126> sl<44> vdd vss wl<126> / cell_PIM
XI20935 bl<44> cbl<22> in1<123> in2<123> sl<44> vdd vss wl<123> / cell_PIM
XI20936 bl<44> cbl<22> in1<124> in2<124> sl<44> vdd vss wl<124> / cell_PIM
XI20285 bl<16> cbl<8> in1<36> in2<36> sl<16> vdd vss wl<36> / cell_PIM
XI20286 bl<16> cbl<8> in1<32> in2<32> sl<16> vdd vss wl<32> / cell_PIM
XI20287 bl<16> cbl<8> in1<33> in2<33> sl<16> vdd vss wl<33> / cell_PIM
XI19767 bl<18> cbl<9> in1<67> in2<67> sl<18> vdd vss wl<67> / cell_PIM
XI19768 bl<18> cbl<9> in1<66> in2<66> sl<18> vdd vss wl<66> / cell_PIM
XI19765 bl<18> cbl<9> in1<68> in2<68> sl<18> vdd vss wl<68> / cell_PIM
XI19766 bl<18> cbl<9> in1<69> in2<69> sl<18> vdd vss wl<69> / cell_PIM
XI19117 bl<26> cbl<13> in1<111> in2<111> sl<26> vdd vss wl<111> / cell_PIM
XI19118 bl<26> cbl<13> in1<112> in2<112> sl<26> vdd vss wl<112> / cell_PIM
XI18467 bl<14> cbl<7> in1<44> in2<44> sl<14> vdd vss wl<44> / cell_PIM
XI18468 bl<14> cbl<7> in1<47> in2<47> sl<14> vdd vss wl<47> / cell_PIM
XI17817 bl<12> cbl<6> in1<127> in2<127> sl<12> vdd vss wl<127> / cell_PIM
XI17815 bl<12> cbl<6> in1<125> in2<125> sl<12> vdd vss wl<125> / cell_PIM
XI17816 bl<12> cbl<6> in1<126> in2<126> sl<12> vdd vss wl<126> / cell_PIM
XI16821 bl<0> cbl<0> in1<42> in2<42> sl<0> vdd vss wl<42> / cell_PIM
XI16822 bl<0> cbl<0> in1<43> in2<43> sl<0> vdd vss wl<43> / cell_PIM
XI16820 bl<0> cbl<0> in1<41> in2<41> sl<0> vdd vss wl<41> / cell_PIM
XI24709 bl<62> cbl<31> in1<8> in2<8> sl<62> vdd vss wl<8> / cell_PIM
XI24060 bl<54> cbl<27> in1<28> in2<28> sl<54> vdd vss wl<28> / cell_PIM
XI24061 bl<54> cbl<27> in1<27> in2<27> sl<54> vdd vss wl<27> / cell_PIM
XI24059 bl<54> cbl<27> in1<30> in2<30> sl<54> vdd vss wl<30> / cell_PIM
XI23410 bl<46> cbl<23> in1<50> in2<50> sl<46> vdd vss wl<50> / cell_PIM
XI23411 bl<46> cbl<23> in1<49> in2<49> sl<46> vdd vss wl<49> / cell_PIM
XI23412 bl<46> cbl<23> in1<47> in2<47> sl<46> vdd vss wl<47> / cell_PIM
XI23413 bl<46> cbl<23> in1<46> in2<46> sl<46> vdd vss wl<46> / cell_PIM
XI23409 bl<46> cbl<23> in1<48> in2<48> sl<46> vdd vss wl<48> / cell_PIM
XI22891 bl<32> cbl<16> in1<63> in2<63> sl<32> vdd vss wl<63> / cell_PIM
XI22892 bl<32> cbl<16> in1<64> in2<64> sl<32> vdd vss wl<64> / cell_PIM
XI22243 bl<56> cbl<28> in1<87> in2<87> sl<56> vdd vss wl<87> / cell_PIM
XI21590 bl<50> cbl<25> in1<104> in2<104> sl<50> vdd vss wl<104> / cell_PIM
XI21589 bl<50> cbl<25> in1<105> in2<105> sl<50> vdd vss wl<105> / cell_PIM
XI20939 bl<44> cbl<22> in1<127> in2<127> sl<44> vdd vss wl<127> / cell_PIM
XI20293 bl<18> cbl<9> in1<34> in2<34> sl<18> vdd vss wl<34> / cell_PIM
XI19769 bl<18> cbl<9> in1<65> in2<65> sl<18> vdd vss wl<65> / cell_PIM
XI19120 bl<26> cbl<13> in1<109> in2<109> sl<26> vdd vss wl<109> / cell_PIM
XI19121 bl<26> cbl<13> in1<108> in2<108> sl<26> vdd vss wl<108> / cell_PIM
XI19119 bl<26> cbl<13> in1<110> in2<110> sl<26> vdd vss wl<110> / cell_PIM
XI18470 bl<14> cbl<7> in1<45> in2<45> sl<14> vdd vss wl<45> / cell_PIM
XI18469 bl<14> cbl<7> in1<46> in2<46> sl<14> vdd vss wl<46> / cell_PIM
XI17821 bl<14> cbl<7> in1<125> in2<125> sl<14> vdd vss wl<125> / cell_PIM
XI17822 bl<14> cbl<7> in1<126> in2<126> sl<14> vdd vss wl<126> / cell_PIM
XI17823 bl<14> cbl<7> in1<127> in2<127> sl<14> vdd vss wl<127> / cell_PIM
XI17169 bl<2> cbl<1> in1<62> in2<62> sl<2> vdd vss wl<62> / cell_PIM
XI17165 bl<2> cbl<1> in1<58> in2<58> sl<2> vdd vss wl<58> / cell_PIM
XI17159 bl<2> cbl<1> in1<67> in2<67> sl<2> vdd vss wl<67> / cell_PIM
XI17156 bl<2> cbl<1> in1<64> in2<64> sl<2> vdd vss wl<64> / cell_PIM
XI17150 bl<2> cbl<1> in1<71> in2<71> sl<2> vdd vss wl<71> / cell_PIM
XI17147 bl<2> cbl<1> in1<68> in2<68> sl<2> vdd vss wl<68> / cell_PIM
XI17141 bl<2> cbl<1> in1<76> in2<76> sl<2> vdd vss wl<76> / cell_PIM
XI17138 bl<2> cbl<1> in1<73> in2<73> sl<2> vdd vss wl<73> / cell_PIM
XI17129 bl<2> cbl<1> in1<79> in2<79> sl<2> vdd vss wl<79> / cell_PIM
XI17120 bl<2> cbl<1> in1<85> in2<85> sl<2> vdd vss wl<85> / cell_PIM
XI17117 bl<2> cbl<1> in1<82> in2<82> sl<2> vdd vss wl<82> / cell_PIM
XI17111 bl<2> cbl<1> in1<91> in2<91> sl<2> vdd vss wl<91> / cell_PIM
XI17108 bl<2> cbl<1> in1<88> in2<88> sl<2> vdd vss wl<88> / cell_PIM
XI17102 bl<2> cbl<1> in1<95> in2<95> sl<2> vdd vss wl<95> / cell_PIM
XI17099 bl<2> cbl<1> in1<92> in2<92> sl<2> vdd vss wl<92> / cell_PIM
XI17093 bl<2> cbl<1> in1<100> in2<100> sl<2> vdd vss wl<100> / cell_PIM
XI17090 bl<2> cbl<1> in1<97> in2<97> sl<2> vdd vss wl<97> / cell_PIM
XI17081 bl<2> cbl<1> in1<103> in2<103> sl<2> vdd vss wl<103> / cell_PIM
XI17072 bl<2> cbl<1> in1<109> in2<109> sl<2> vdd vss wl<109> / cell_PIM
XI17069 bl<2> cbl<1> in1<106> in2<106> sl<2> vdd vss wl<106> / cell_PIM
XI17063 bl<2> cbl<1> in1<115> in2<115> sl<2> vdd vss wl<115> / cell_PIM
XI17060 bl<2> cbl<1> in1<112> in2<112> sl<2> vdd vss wl<112> / cell_PIM
XI17054 bl<2> cbl<1> in1<119> in2<119> sl<2> vdd vss wl<119> / cell_PIM
XI17051 bl<2> cbl<1> in1<116> in2<116> sl<2> vdd vss wl<116> / cell_PIM
XI17045 bl<2> cbl<1> in1<124> in2<124> sl<2> vdd vss wl<124> / cell_PIM
XI17042 bl<2> cbl<1> in1<121> in2<121> sl<2> vdd vss wl<121> / cell_PIM
XI17035 bl<2> cbl<1> in1<125> in2<125> sl<2> vdd vss wl<125> / cell_PIM
XI16905 bl<0> cbl<0> in1<126> in2<126> sl<0> vdd vss wl<126> / cell_PIM
XI16902 bl<0> cbl<0> in1<123> in2<123> sl<0> vdd vss wl<123> / cell_PIM
XI16899 bl<0> cbl<0> in1<120> in2<120> sl<0> vdd vss wl<120> / cell_PIM
XI16896 bl<0> cbl<0> in1<117> in2<117> sl<0> vdd vss wl<117> / cell_PIM
XI16893 bl<0> cbl<0> in1<114> in2<114> sl<0> vdd vss wl<114> / cell_PIM
XI16890 bl<0> cbl<0> in1<111> in2<111> sl<0> vdd vss wl<111> / cell_PIM
XI16887 bl<0> cbl<0> in1<108> in2<108> sl<0> vdd vss wl<108> / cell_PIM
XI16884 bl<0> cbl<0> in1<105> in2<105> sl<0> vdd vss wl<105> / cell_PIM
XI16881 bl<0> cbl<0> in1<102> in2<102> sl<0> vdd vss wl<102> / cell_PIM
XI16878 bl<0> cbl<0> in1<99> in2<99> sl<0> vdd vss wl<99> / cell_PIM
XI16875 bl<0> cbl<0> in1<96> in2<96> sl<0> vdd vss wl<96> / cell_PIM
XI16872 bl<0> cbl<0> in1<93> in2<93> sl<0> vdd vss wl<93> / cell_PIM
XI16869 bl<0> cbl<0> in1<90> in2<90> sl<0> vdd vss wl<90> / cell_PIM
XI16866 bl<0> cbl<0> in1<87> in2<87> sl<0> vdd vss wl<87> / cell_PIM
XI16863 bl<0> cbl<0> in1<84> in2<84> sl<0> vdd vss wl<84> / cell_PIM
XI16860 bl<0> cbl<0> in1<81> in2<81> sl<0> vdd vss wl<81> / cell_PIM
XI16857 bl<0> cbl<0> in1<78> in2<78> sl<0> vdd vss wl<78> / cell_PIM
XI16854 bl<0> cbl<0> in1<75> in2<75> sl<0> vdd vss wl<75> / cell_PIM
XI16851 bl<0> cbl<0> in1<72> in2<72> sl<0> vdd vss wl<72> / cell_PIM
XI16848 bl<0> cbl<0> in1<69> in2<69> sl<0> vdd vss wl<69> / cell_PIM
XI16810 bl<0> cbl<0> in1<31> in2<31> sl<0> vdd vss wl<31> / cell_PIM
XI16807 bl<0> cbl<0> in1<28> in2<28> sl<0> vdd vss wl<28> / cell_PIM
XI16804 bl<0> cbl<0> in1<25> in2<25> sl<0> vdd vss wl<25> / cell_PIM
XI16801 bl<0> cbl<0> in1<22> in2<22> sl<0> vdd vss wl<22> / cell_PIM
XI16798 bl<0> cbl<0> in1<19> in2<19> sl<0> vdd vss wl<19> / cell_PIM
XI16795 bl<0> cbl<0> in1<16> in2<16> sl<0> vdd vss wl<16> / cell_PIM
XI16792 bl<0> cbl<0> in1<13> in2<13> sl<0> vdd vss wl<13> / cell_PIM
XI16789 bl<0> cbl<0> in1<10> in2<10> sl<0> vdd vss wl<10> / cell_PIM
XI16786 bl<0> cbl<0> in1<7> in2<7> sl<0> vdd vss wl<7> / cell_PIM
XI16783 bl<0> cbl<0> in1<4> in2<4> sl<0> vdd vss wl<4> / cell_PIM
XI16780 bl<0> cbl<0> in1<1> in2<1> sl<0> vdd vss wl<1> / cell_PIM
XI16846 bl<0> cbl<0> in1<67> in2<67> sl<0> vdd vss wl<67> / cell_PIM
XI16843 bl<0> cbl<0> in1<64> in2<64> sl<0> vdd vss wl<64> / cell_PIM
XI16840 bl<0> cbl<0> in1<61> in2<61> sl<0> vdd vss wl<61> / cell_PIM
XI16837 bl<0> cbl<0> in1<58> in2<58> sl<0> vdd vss wl<58> / cell_PIM
XI16834 bl<0> cbl<0> in1<55> in2<55> sl<0> vdd vss wl<55> / cell_PIM
XI16831 bl<0> cbl<0> in1<52> in2<52> sl<0> vdd vss wl<52> / cell_PIM
XI16828 bl<0> cbl<0> in1<49> in2<49> sl<0> vdd vss wl<49> / cell_PIM
XI16825 bl<0> cbl<0> in1<46> in2<46> sl<0> vdd vss wl<46> / cell_PIM
XI16819 bl<0> cbl<0> in1<40> in2<40> sl<0> vdd vss wl<40> / cell_PIM
XI16818 bl<0> cbl<0> in1<39> in2<39> sl<0> vdd vss wl<39> / cell_PIM
XI16817 bl<0> cbl<0> in1<38> in2<38> sl<0> vdd vss wl<38> / cell_PIM
XI17158 bl<2> cbl<1> in1<66> in2<66> sl<2> vdd vss wl<66> / cell_PIM
XI17157 bl<2> cbl<1> in1<65> in2<65> sl<2> vdd vss wl<65> / cell_PIM
XI17155 bl<2> cbl<1> in1<63> in2<63> sl<2> vdd vss wl<63> / cell_PIM
XI17149 bl<2> cbl<1> in1<70> in2<70> sl<2> vdd vss wl<70> / cell_PIM
XI17148 bl<2> cbl<1> in1<69> in2<69> sl<2> vdd vss wl<69> / cell_PIM
XI17140 bl<2> cbl<1> in1<75> in2<75> sl<2> vdd vss wl<75> / cell_PIM
XI17139 bl<2> cbl<1> in1<74> in2<74> sl<2> vdd vss wl<74> / cell_PIM
XI17137 bl<2> cbl<1> in1<72> in2<72> sl<2> vdd vss wl<72> / cell_PIM
XI17131 bl<2> cbl<1> in1<81> in2<81> sl<2> vdd vss wl<81> / cell_PIM
XI17130 bl<2> cbl<1> in1<80> in2<80> sl<2> vdd vss wl<80> / cell_PIM
XI17128 bl<2> cbl<1> in1<78> in2<78> sl<2> vdd vss wl<78> / cell_PIM
XI17127 bl<2> cbl<1> in1<77> in2<77> sl<2> vdd vss wl<77> / cell_PIM
XI17121 bl<2> cbl<1> in1<86> in2<86> sl<2> vdd vss wl<86> / cell_PIM
XI17119 bl<2> cbl<1> in1<84> in2<84> sl<2> vdd vss wl<84> / cell_PIM
XI17118 bl<2> cbl<1> in1<83> in2<83> sl<2> vdd vss wl<83> / cell_PIM
XI17110 bl<2> cbl<1> in1<90> in2<90> sl<2> vdd vss wl<90> / cell_PIM
XI17109 bl<2> cbl<1> in1<89> in2<89> sl<2> vdd vss wl<89> / cell_PIM
XI17107 bl<2> cbl<1> in1<87> in2<87> sl<2> vdd vss wl<87> / cell_PIM
XI17101 bl<2> cbl<1> in1<94> in2<94> sl<2> vdd vss wl<94> / cell_PIM
XI17100 bl<2> cbl<1> in1<93> in2<93> sl<2> vdd vss wl<93> / cell_PIM
XI17092 bl<2> cbl<1> in1<99> in2<99> sl<2> vdd vss wl<99> / cell_PIM
XI17091 bl<2> cbl<1> in1<98> in2<98> sl<2> vdd vss wl<98> / cell_PIM
XI17089 bl<2> cbl<1> in1<96> in2<96> sl<2> vdd vss wl<96> / cell_PIM
XI17083 bl<2> cbl<1> in1<105> in2<105> sl<2> vdd vss wl<105> / cell_PIM
XI17082 bl<2> cbl<1> in1<104> in2<104> sl<2> vdd vss wl<104> / cell_PIM
XI17080 bl<2> cbl<1> in1<102> in2<102> sl<2> vdd vss wl<102> / cell_PIM
XI17079 bl<2> cbl<1> in1<101> in2<101> sl<2> vdd vss wl<101> / cell_PIM
XI17073 bl<2> cbl<1> in1<110> in2<110> sl<2> vdd vss wl<110> / cell_PIM
XI17071 bl<2> cbl<1> in1<108> in2<108> sl<2> vdd vss wl<108> / cell_PIM
XI17070 bl<2> cbl<1> in1<107> in2<107> sl<2> vdd vss wl<107> / cell_PIM
XI17062 bl<2> cbl<1> in1<114> in2<114> sl<2> vdd vss wl<114> / cell_PIM
XI17061 bl<2> cbl<1> in1<113> in2<113> sl<2> vdd vss wl<113> / cell_PIM
XI17059 bl<2> cbl<1> in1<111> in2<111> sl<2> vdd vss wl<111> / cell_PIM
XI17053 bl<2> cbl<1> in1<118> in2<118> sl<2> vdd vss wl<118> / cell_PIM
XI17052 bl<2> cbl<1> in1<117> in2<117> sl<2> vdd vss wl<117> / cell_PIM
XI17044 bl<2> cbl<1> in1<123> in2<123> sl<2> vdd vss wl<123> / cell_PIM
XI17043 bl<2> cbl<1> in1<122> in2<122> sl<2> vdd vss wl<122> / cell_PIM
XI17041 bl<2> cbl<1> in1<120> in2<120> sl<2> vdd vss wl<120> / cell_PIM
XI17036 bl<2> cbl<1> in1<126> in2<126> sl<2> vdd vss wl<126> / cell_PIM
XI25352 vss vss in1<7> in2<7> vss vdd vss wl<7> / cell_PIM
XI25351 vss vss in1<6> in2<6> vss vdd vss wl<6> / cell_PIM
XI25350 vss vss in1<5> in2<5> vss vdd vss wl<5> / cell_PIM
XI25349 vss vss in1<9> in2<9> vss vdd vss wl<9> / cell_PIM
XI25353 vss vss in1<3> in2<3> vss vdd vss wl<3> / cell_PIM
XI25348 vss vss in1<8> in2<8> vss vdd vss wl<8> / cell_PIM
XI25347 vss vss in1<11> in2<11> vss vdd vss wl<11> / cell_PIM
XI25346 vss vss in1<10> in2<10> vss vdd vss wl<10> / cell_PIM
XI25345 vss vss in1<12> in2<12> vss vdd vss wl<12> / cell_PIM
XI25344 vss vss in1<14> in2<14> vss vdd vss wl<14> / cell_PIM
XI24698 bl<60> cbl<30> in1<8> in2<8> sl<60> vdd vss wl<8> / cell_PIM
XI25342 vss vss in1<16> in2<16> vss vdd vss wl<16> / cell_PIM
XI25341 vss vss in1<15> in2<15> vss vdd vss wl<15> / cell_PIM
XI25340 vss vss in1<17> in2<17> vss vdd vss wl<17> / cell_PIM
XI25339 vss vss in1<19> in2<19> vss vdd vss wl<19> / cell_PIM
XI25343 vss vss in1<13> in2<13> vss vdd vss wl<13> / cell_PIM
XI24688 bl<58> cbl<29> in1<9> in2<9> sl<58> vdd vss wl<9> / cell_PIM
XI25337 vss vss in1<21> in2<21> vss vdd vss wl<21> / cell_PIM
XI25336 vss vss in1<20> in2<20> vss vdd vss wl<20> / cell_PIM
XI25335 vss vss in1<24> in2<24> vss vdd vss wl<24> / cell_PIM
XI25334 vss vss in1<23> in2<23> vss vdd vss wl<23> / cell_PIM
XI25338 vss vss in1<18> in2<18> vss vdd vss wl<18> / cell_PIM
XI25332 vss vss in1<26> in2<26> vss vdd vss wl<26> / cell_PIM
XI25331 vss vss in1<25> in2<25> vss vdd vss wl<25> / cell_PIM
XI25330 vss vss in1<28> in2<28> vss vdd vss wl<28> / cell_PIM
XI25329 vss vss in1<27> in2<27> vss vdd vss wl<27> / cell_PIM
XI25333 vss vss in1<22> in2<22> vss vdd vss wl<22> / cell_PIM
XI25328 vss vss in1<31> in2<31> vss vdd vss wl<31> / cell_PIM
XI25327 vss vss in1<30> in2<30> vss vdd vss wl<30> / cell_PIM
XI25326 vss vss in1<29> in2<29> vss vdd vss wl<29> / cell_PIM
XI25325 vss vss in1<33> in2<33> vss vdd vss wl<33> / cell_PIM
XI25324 vss vss in1<32> in2<32> vss vdd vss wl<32> / cell_PIM
XI24678 bl<56> cbl<28> in1<9> in2<9> sl<56> vdd vss wl<9> / cell_PIM
XI25322 vss vss in1<34> in2<34> vss vdd vss wl<34> / cell_PIM
XI25321 vss vss in1<36> in2<36> vss vdd vss wl<36> / cell_PIM
XI25320 vss vss in1<38> in2<38> vss vdd vss wl<38> / cell_PIM
XI25319 vss vss in1<37> in2<37> vss vdd vss wl<37> / cell_PIM
XI25323 vss vss in1<35> in2<35> vss vdd vss wl<35> / cell_PIM
XI24668 bl<54> cbl<27> in1<9> in2<9> sl<54> vdd vss wl<9> / cell_PIM
XI25317 vss vss in1<39> in2<39> vss vdd vss wl<39> / cell_PIM
XI25316 vss vss in1<41> in2<41> vss vdd vss wl<41> / cell_PIM
XI25315 vss vss in1<43> in2<43> vss vdd vss wl<43> / cell_PIM
XI25314 vss vss in1<42> in2<42> vss vdd vss wl<42> / cell_PIM
XI25318 vss vss in1<40> in2<40> vss vdd vss wl<40> / cell_PIM
XI25312 vss vss in1<44> in2<44> vss vdd vss wl<44> / cell_PIM
XI25311 vss vss in1<47> in2<47> vss vdd vss wl<47> / cell_PIM
XI25310 vss vss in1<46> in2<46> vss vdd vss wl<46> / cell_PIM
XI25309 vss vss in1<50> in2<50> vss vdd vss wl<50> / cell_PIM
XI25313 vss vss in1<45> in2<45> vss vdd vss wl<45> / cell_PIM
XI25308 vss vss in1<49> in2<49> vss vdd vss wl<49> / cell_PIM
XI25307 vss vss in1<48> in2<48> vss vdd vss wl<48> / cell_PIM
XI25306 vss vss in1<52> in2<52> vss vdd vss wl<52> / cell_PIM
XI25305 vss vss in1<51> in2<51> vss vdd vss wl<51> / cell_PIM
XI25304 vss vss in1<55> in2<55> vss vdd vss wl<55> / cell_PIM
XI24658 bl<52> cbl<26> in1<8> in2<8> sl<52> vdd vss wl<8> / cell_PIM
XI25302 vss vss in1<53> in2<53> vss vdd vss wl<53> / cell_PIM
XI25301 vss vss in1<57> in2<57> vss vdd vss wl<57> / cell_PIM