**
.model  npn18a100  npn  level = 1
**************************************************************
*               general parameters
**************************************************************
+tref    = 25
**************************************************************
*               capacitance parameters
**************************************************************
+cjc     = '1.28e-013+dcjc_npn18a100'       cje     = '0.987e-013+dcje_npn18a100'          fc      = 0               mjc     = 0.330
+mje     = 0.347           vjc     = 0.676           vje     = 0.704
**************************************************************
*               noise parameters
**************************************************************
**************************************************************
*               dc parameters
**************************************************************
+is      = '3.3441e-017+dis_npn18a100+dis_npn18a100mis'     subs    = 1               rb      = '0.4678+drb_npn18a100'          re      = '8.424+dre_npn18a100'
+irb     = 0.002           rc      = '9.5909+drc_npn18a100'          rbm     = '0.4678+drbm_npn18a100'             bf      = '19.847+dbf_npn18a100+dbf_npn18a100mis'
+nf      = '1.006+dnf_npn18a100'           vaf     = 40              ikf     = '0.047045+dikf_npn18a100'        ise     = 3.2944e-016
+ne      = 1.447           br      = 0.9874          nr      = 1.005           var     = 26.739
+ikr     = 0.0033          nkf     = 0.60229         isc     = 8.97e-016       nc      = 1.4
**************************************************************
*               temperature parameters
**************************************************************
+xtb     = 0               xti     = 3               eg      = 1.16            ctc     = 0.00083836
+cte     = 0.00090633      tlev    = 0               tlevc   = 1               tvjc    = 0.001448
+tvje    = 0.00147         tne1    = 0.00025         tbf1    = 0.0061          tbr1    = 0.0013532
+tvar1   = 0               tikf1   = -0.001          tikr1   = 0               tbr2    = -6.26e-006
+tikf2   = -1.224e-006     tnf1 = -0.00005
**************************************************************
*               quasi
**************************************************************
