**
.model  npn18a4  npn  level = 1
**************************************************************
*               general parameters
**************************************************************
+tref    = 25
**************************************************************
*               capacitance parameters
**************************************************************
+cjc     = '3.19e-014+dcjc_npn18a4'       cje     = '3.95e-015+dcje_npn18a4'       fc      = 0               mjc     = 0.330
+mje     = 0.347           vjc     = 0.676           vje     = 0.704
**************************************************************
*               noise parameters
**************************************************************
**************************************************************
*               dc parameters
**************************************************************
+is     = '1.6937e-018+dis_npn18a4+dis_npn18a4mis'     subs    = 1               rb      = '14.031+drb_npn18a4'          re      = '36.45+dre_npn18a4'
+irb     = 0.0001          rc      = '26.5+drc_npn18a4'            rbm     = '1+drbm_npn18a4'             bf      = '22.1+dbf_npn18a4+dbf_npn18a4mis'
+nf      = '1.002+dnf_npn18a4'           vaf     = 61.355          ikf     = '0.0011099+dikf_npn18a4'       ise     = 6.8172e-017
+ne      = 1.48            br      = 0.17097         nr      = 1.008           var     = 28.361
+ikr     = 0.0013          nkf     = 0.34216         isc     = 5.8e-016        nc      = 1.43
**************************************************************
*               temperature parameters
**************************************************************
+xtb     = 0               xti     = 3               eg      = 1.16            ctc     = 0.00083836
+cte     = 0.00090633      tlev    = 0               tlevc   = 1               tvjc    = 0.001448
+tvje    = 0.001395       tnf1    = -3e-005          tne1    = 0.00025         tbf1    = 0.0059
+tbr1    = 0.0011847       tvar1   = -0.00104        tikf1   = 0.0005          tbr2    = -5.22e-006
+tikf2   = 0
**************************************************************
*               quasi
**************************************************************
