**
.model  npn33a25  npn  level = 1
**************************************************************
*               general parameters
**************************************************************
+tref    = 25
**************************************************************
*               capacitance parameters
**************************************************************
+cjc     = '6.03282e-014+dcjc_npn33a25'     cje     = '2.1525e-014+dcje_npn33a25'     fc      = 0               mjc     = 0.330
+mje     = 0.32174         vjc     = 0.676           vje     = 0.70384
**************************************************************
*               noise parameters
**************************************************************
**************************************************************
*               dc parameters
**************************************************************
+is      = '1.01e-017+dis_npn33a25+dis_npn33a25mis'       subs    = 1               rb      = '54.432+drb_npn33a25'          re      = '12.48+dre_npn33a25'
+irb     = 0.0045          rc      = '0.808+drc_npn33a25'           rbm     = '1+drbm_npn33a25'             bf      = '27.4+dbf_npn33a25+dbf_npn33a25mis'
+nf      = '1+dnf_npn33a25'               vaf     = 52.4            ikf     = '0.00543+dikf_npn33a25'         ise     = 4.1808e-017
+ne      = 1.3477          br      = 0.62421         nr      = 1               var     = 21.621
+ikr     = 0.001           nkf     = 0.41682         isc     = 7e-016          nc      = 1.4
**************************************************************
*               temperature parameters
**************************************************************
+xtb     = 0               xti     = 3               eg      = 1.16            ctc     = 0.000906
+cte     = 0.00093975      tlev    = 0               tlevc   = 1               tvjc    = 0.001448
+tvje    = 0.0016752       tis1    = 0               tise1   = 0               tnf1    = -5.5e-5
+tne1    = 0.00025         tbf1    = 0.00658       tbr1    = 0.001273        tikf1   = -0.001
+trb1    = 0               trc1    = 0               tre1    = 0               tnf2    = 0
+tbf2    = -1.6e-006       tbr2    = -4.7348e-006    tikf2   = -2.01e-006      trb2    = 0
+trc2    = 0               tre2    = 0               tvar1  = -0.006
**************************************************************
*               quasi
**************************************************************
