**
.model  npn33a4  npn  level = 1
**************************************************************
*               general parameters
**************************************************************
+tref    = 25
**************************************************************
*               capacitance parameters
**************************************************************
+cjc     = '3.1909e-014+dcjc_npn33a4'     cje     = '3.4439e-015+dcje_npn33a4'     fc      = 0               mjc     = 0.330
+mje     = 0.32174         vjc     = 0.676           vje     = 0.70384
**************************************************************
*               noise parameters
**************************************************************
**************************************************************
*               dc parameters
**************************************************************
+is      = '2.0648e-018+dis_npn33a4+dis_npn33a4mis'     subs    = 1               rb      = '121.8+drb_npn33a4'           re      = '32.45+dre_npn33a4'
+irb     = 0.001           rc      = '1.0959+drc_npn33a4'          rbm     = '1+drbm_npn33a4'             bf      = '29.258+dbf_npn33a4+dbf_npn33a4mis'
+nf      = '1+dnf_npn33a4'               vaf     = 55.485          ikf     = '0.00069549+dikf_npn33a4'      ise     = 7.8403e-018
+ne      = 1.2884          br      = 0.1952          nr      = 1               var     = 22.131
+ikr     = 0.0035362       nkf     = 0.34362         isc     = 5.8e-016        nc      = 1.43
**************************************************************
*               temperature parameters
**************************************************************
+xtb     = 0               xti     = 3               eg      = 1.16            ctc     = 0.000906
+cte     = 0.00093975      tlev    = 0               tlevc   = 1               tvjc    = 0.001448
+tvje    = 0.0016752       tnf1    = -5.5e-5               tnr1    = 0               tne1    = 0.0002
+tbf1    = 0.00702       tbr1    = 0.0013438       tvar1   = -0.005      tikf1   = -0.001
+trb1    = 0               trc1    = 0               tre1    = 0               tirb1   = 4e-012
+tnr2    = 0               tbf2    = 4.6716e-006     tbr2    = -5.4139e-006    tikf2   = -3.3389e-006
+trb2    = 0               trc2    = 0               tre2    = 0               tirb2   = 0
**************************************************************
*               quasi
**************************************************************
