**
.model  npn33a100  npn  level = 1
**************************************************************
*               general parameters
**************************************************************
+tref    = 25
**************************************************************
*               capacitance parameters
**************************************************************
+cjc     = '1.2764e-013+dcjc_npn33a100'     cje     = '8.6098e-014+dcje_npn33a100'     fc      = 0               mjc     = 0.330
+mje     = 0.32174         vjc     = 0.676           vje     = 0.70384
**************************************************************
*               noise parameters
**************************************************************
**************************************************************
*               dc parameters
**************************************************************
+is      = '4.5288e-017+dis_npn33a100+dis_npn33a100mis'     subs    = 1               rb      = '64.84+drb_npn33a100'           re      = '4.8+dre_npn33a100'
+irb     = 0.008           rc      = '1.07+drc_npn33a100'            rbm     = '1+drbm_npn33a100'             bf      = '25.54+dbf_npn33a100+dbf_npn33a100mis'
+nf      = '1.0075+dnf_npn33a100'          vaf     = 50.818          ikf     = '0.075458+dikf_npn33a100'        ise     = 3.8178e-016
+ne      = 1.5127          br      = 1.197           nr      = 1.0078          var     = 21.301
+ikr     = 0.058           nkf     = 0.99246         isc     = 5.57e-016       nc      = 1.4
**************************************************************
*               temperature parameters
**************************************************************
+xtb     = 0               xti     = 3               eg      = 1.16            ctc     = 0.000906
+cte     = 0.00093975      tlev    = 0               tlevc   = 1               tvjc    = 0.001448
+tvje    = 0.0016752       tnf1    = -4.3115e-005    tnr1    = -4.25e-005      tne1    = 1e-006
+tbf1    = 0.006338        tbr1    = 0.0013235       tikf1   = -0.001          tikr1   = 0
+trb1    = 0               trc1    = 0               tre1    = 0               tbf2    = 9.6e-007
+tbr2    = -4.1567e-006    tikf2   = -8.7989e-006    trb2    = 0               trc2    = 0
+tre2    = 0               tvar1   = -0.003
**************************************************************
*               quasi
**************************************************************
