**
.model  pnp18a4  pnp  level = 1
**************************************************************
*               general parameters
**************************************************************
+tref    = 25
**************************************************************
*               capacitance parameters
**************************************************************
+cjc     = '0.838e-014+dcjc_pnp18a4'       cje     = '4.51e-015+dcje_pnp18a4'       fc      = 0               mjc     = 0.263
+mje     = 0.418           vjc     = 0.416           vje     = 0.840
**************************************************************
*               noise parameters
**************************************************************
**************************************************************
*               dc parameters
**************************************************************
+is      = '6.2078e-019+dis_pnp18a4+dis_pnp18a4mis'     subs    = 1               rb      = '107.43+drb_pnp18a4'          re      = '1.8101+dre_pnp18a4'
+irb     = 0.0015          rc      = '12.115+drc_pnp18a4'          rbm     = '2+drbm_pnp18a4'               bf      = '2.73+dbf_pnp18a4+dbf_pnp18a4mis'
+nf      = '1+dnf_pnp18a4'               vaf     = 93.982          ikf     = '0.00022698+dikf_pnp18a4'      ise     = 1.6995e-017
+ne      = 1.47            br      = 0.000898        nr      = 1               var     = 16.702
+ikr     = 0.00179         nkf     = 0.39826         isc     = 2e-017          nc      = 1.5
**************************************************************
*               temperature parameters
**************************************************************
+xtb     = 0               xti     = 3               eg      = 1.16            ctc     = 0.00176
+cte     = 0.001019        tlev    = 0               tlevc   = 1               tvjc    = 0.00155
+tvje    = 0.0014196         tise1   = 0               tnf1    = -2e-005         tbf1    = 0.00545
+tbr1    = -0.0011279      tikf1   = -0.001     tbf2    = 3.676e-006      tbr2    = 1.331e-005
*+tikf2   = 0
+tikf2   = -1.8e-006
**************************************************************
*               quasi
**************************************************************
