**
.model  pnp18a25  pnp  level = 1
**************************************************************
*               general parameters
**************************************************************
+tref    = 25
**************************************************************
*               capacitance parameters
**************************************************************
+cjc     = '1.585e-014+dcjc_pnp18a25'       cje     = '2.819e-014+dcje_pnp18a25'     fc      = 0               mjc     = 0.263
+mje     = 0.418           vjc     = 0.416           vje     = 0.840
**************************************************************
*               noise parameters
**************************************************************
**************************************************************
*               dc parameters
**************************************************************
+is      = '3.1463e-018+dis_pnp18a25+dis_pnp18a25mis'     subs    = 1               rb      = '70.398+drb_pnp18a25'          re      = '2.0699+dre_pnp18a25'
+irb     = 0.0008          rc      = '17.11+drc_pnp18a25'           rbm     = '2+drbm_pnp18a25'               bf      = '2.7144+dbf_pnp18a25+dbf_pnp18a25mis'
+nf      = '1+dnf_pnp18a25'               vaf     = 110.79          ikf     = '0.00088498+dikf_pnp18a25'      ise     = 7.815e-017
+ne      = 1.5             br      = 0.0031707       nr      = 1               var     = 20.677
+ikr     = 0.00209         nkf     = 0.45134         isc     = 5.5e-017        nc      = 1.5
**************************************************************
*               temperature parameters
**************************************************************
+xtb     = 0               xti     = 3               eg      = 1.16            ctc     = 0.00176
+cte     = 0.001019      tlev    = 0               tlevc   = 1               tvjc    = 0.00155
+tvje    = 0.0014196       tis1    = 0               tnf1    = 6e-010          tbf1    = 0.0051122
+tbr1    = -0.0011021      tikf1   = -0.0001705      trb1    = 0               trc1    = 0
+tre1    = 0               tnf2    = -4.9235e-007    tbf2    = 1.3202e-006     tbr2    = 1.1804e-005
+tikf2   = -3.0995e-005    trb2    = 0               trc2    = 0               tre2    = 6.328e-005
**************************************************************
*               quasi
**************************************************************
