**
.model  pnp18a100  pnp  level = 1
**************************************************************
*               general parameters
**************************************************************
+tref    = 25
**************************************************************
*               capacitance parameters
**************************************************************
+cjc     = '3.35e-014+dcjc_pnp18a100'       cje     = '1.13e-013+dcje_pnp18a100'       fc      = 0               mjc     = 0.263
+mje     = 0.418           vjc     = 0.416           vje     = 0.840
**************************************************************
*               noise parameters
**************************************************************
**************************************************************
*               dc parameters
**************************************************************
+is      = '1.2455e-017+dis_pnp18a100+dis_pnp18a100mis'     subs    = 1               rb      = '60.398+drb_pnp18a100'          re      = '1.1166+dre_pnp18a100'
+irb     = 0.0008          rc      = '17.11+drc_pnp18a100'           rbm     = '2+drbm_pnp18a100'               bf      = '2.7451+dbf_pnp18a100+dbf_pnp18a100mis'
+nf      = '1.0034+dnf_pnp18a100'          vaf     = 503.69          ikf     = '0.0020384+dikf_pnp18a100'       ise     = 9e-017
+ne      = 1.503           br      = 0.0078578       nr      = 1.0032          var     = 25
+ikr     = 0.00209         nkf     = 0.50576         isc     = 5.5e-017        nc      = 1.5
**************************************************************
*               temperature parameters
**************************************************************
+xtb     = 0               xti     = 3               eg      = 1.16            ctc     = 0.00176
+cte     = 0.001019        tlev    = 0               tlevc   = 1               tvjc    = 0.00155
+tvje    = 0.0014196         tis1    = 0               tnf1    = 1.0454e-008     tne1    = 0.0001
+tbf1    = 0.0048216       tbr1    = -0.00086314     tikf1   = -0.001          tnf2    = 9.4e-011
+tbr2    = 9.31e-006       tikf2   = -1.86e-005
**************************************************************
*               quasi
**************************************************************
