**
.model  pnp33a25  pnp  level = 1
**************************************************************
*               general parameters
**************************************************************
+tref    = 25
**************************************************************
*               capacitance parameters
**************************************************************
+cjc     = '1.585e-014+dcjc_pnp33a25'     cje     = '2.61e-014+dcje_pnp33a25'     fc      = 0               mjc     = 0.263
+mje     = 0.398           vjc     = 0.416           vje     = 0.821
**************************************************************
*               noise parameters
**************************************************************
**************************************************************
*               dc parameters
**************************************************************
+is      = '3.2806e-018+dis_pnp33a25+dis_pnp33a25mis'     subs    = 1               rb      = '70.398+drb_pnp33a25'          re      = '3.4499+dre_pnp33a25'
+irb     = 0.0008          rc      = '17.11+drc_pnp33a25'           rbm     = '2+drbm_pnp33a25'               bf      = '2.8513+dbf_pnp33a25+dbf_pnp33a25mis'
+nf      = '0.995+dnf_pnp33a25'           vaf     = 553.93          ikf     = '0.001074+dikf_pnp33a25'        ise     = 9.8674e-017
+ne      = 1.5             br      = 0.0033731       nr      = 0.995           var     = 30.6
+ikr     = 0.00209         nkf     = 0.4822          isc     = 5.5e-017        nc      = 1.5
**************************************************************
*               temperature parameters
**************************************************************
+xtb     = 0               xti     = 3               eg      = 1.16            ctc     = 0.00176
+cte     = 0.0009267      tlev    = 0               tlevc   = 1               tvjc    = 0.00155
+tvje    = 0.00154       tis1    = 0               tnf1    = -1.432e-005      tbf1    = 0.00515
+tbr1    = -0.0011021      tikf1   = -0.001         trb1    = 0               trc1    = 0
+tre1    = 0               tbf2    = 0     tbr2    = 1.1804e-005     tikf2   = -3.0995e-006
+trb2    = 0               trc2    = 0               tre2    = -4e-005
**************************************************************
*               quasi
**************************************************************
