**
.model  pnp33a100  pnp  level = 1
**************************************************************
*               general parameters
**************************************************************
+tref    = 25
**************************************************************
*               capacitance parameters
**************************************************************
+cjc     = '3.35e-014+dcjc_pnp33a100'     cje     = '1.04e-013+dcje_pnp33a100'     fc      = 0               mjc     = 0.263
+mje     = 0.398           vjc     = 0.416           vje     = 0.821
**************************************************************
*               noise parameters
**************************************************************
**************************************************************
*               dc parameters
**************************************************************
+is      = '1.3857e-017+dis_pnp33a100+dis_pnp33a100mis'     subs    = 1               rb      = '53.633+drb_pnp33a100'          re      = '2.1765+dre_pnp33a100'
+irb     = 0.0008          rc      = '19.3+drc_pnp33a100'            rbm     = '2+drbm_pnp33a100'               bf      = '2.89+dbf_pnp33a100+dbf_pnp33a100mis'
+nf      = '1.006+dnf_pnp33a100'           vaf     = 261.45          ikf     = '0.002077+dikf_pnp33a100'        ise     = 1.6773e-016
+ne      = 1.503           br      = 0.00825         nr      = 1.006           var     = 27.431
+ikr     = 0.00209         nkf     = 0.51359         isc     = 5.5e-017        nc      = 1.5
**************************************************************
*               temperature parameters
**************************************************************
+xtb     = 0               xti     = 3               eg      = 1.16            ctc     = 0.00176
+cte     = 0.0009267      tlev    = 0               tlevc   = 1               tvjc    = 0.00155
+tvje    = 0.00154       tis1    = 0               tnf1    = 2.2837e-011     tnr1    = 0
+tne1    = 0.0001          tbf1    = 0.00498       tbr1    = -0.00071553     tikf1   = -0.000999
+trb1    = 0               trc1    = 0               tre1    = 0               tnf2    = 0
+tbf2    = 2.02e-006       tbr2    = 1e-005          tikf2   = -2.4e-005       trb2    = 0
+trc2    = 0               tre2    = 0
**************************************************************
*               quasi
**************************************************************
