* This file contains 1.8V, 3.3V mos, resistor and mim corner model parameters.
* Five corners are supported: TT, FF, SS, SNFP, and FNSP.
* Monte Carlo statistical model is supported: mos_mc,MIM_MC
* This file should be used with the model parameter file 'mse018_v1p11_mis_rf.mdl', 'mse018_v1p11_rf_res.ckt' , 'mse018_v1p11_rf_mim.ckt',
* 'mse018_v1p11_res.mdl' ,'mse018_v1p11_diff_ind_3t_rf.ckt','mse018_v1p11_diff_ind_3t_rf_psub.ckt',
* 'mse018_v1p11_diff_ind_rf.ckt','mse018_v1p11_diff_ind_rf_psub.ckt','mse018_v1p11_ind_rf.ckt',
* 'mse018_v1p11_ind_rf_psub.ckt' and 'mse018_v1p11_rf_var.ckt'.
* No part of this file can be released without the consent of SMIC.

.lib tt
.option gmindc=1e-14
.param

+sigma_mis_a_rf=agauss(0,1,1)
+sigma_mis_b_rf=agauss(0,1,1)
+sigma_mis_c_rf=agauss(0,1,1)
+sigma_mis_d_rf=agauss(0,1,1)
+sigma_mis_e_rf=agauss(0,1,1)
+sigma_mis_f_rf=agauss(0,1,1)
+sigma_mis_g_rf=agauss(0,1,1)
+sigma_mis_h_rf=agauss(0,1,1)

* 1.8v nmos (TT corner)
* 1=drain,2=gate,3=source,4=bulk
.subckt n18_ckt_rf 1 2 3 4 wr=2.5e-6 lr=1.8e-7 nf=16 sar=1.04e-006 sbr=1.04e-006 sdr=0.54e-6 nrdr=0.00675 nrsr=0.00915625 mr=1 scar=0 scbr=0 sccr=0 mismod=1
.param w='wr*nf' l=lr
.param
******mismatch******
+dtoxe_n18_rf_mis     = '0+atoxe_n18_rf*geo_fac*sigma_mis_a_rf*mismod'
+dvth0_n18_rf_mis     = '0+avth0_n18_rf*geo_fac*sigma_mis_b_rf*mismod'
+du0_n18_rf_mis       = '0+au0_n18_rf*geo_fac*sigma_mis_c_rf*mismod'
+dvsat_n18_rf_mis     = '0+avsat_n18_rf*geo_fac*sigma_mis_d_rf*mismod'
+dtoxe_n18_rf_mismatch         = '0+dtoxe_n18_rf_mis'               
+dvth0_n18_rf_mismatch         = '0+dvth0_n18_rf_mis'  
+du0_n18_rf_mismatch           = '0+du0_n18_rf_mis'               
+dvsat_n18_rf_mismatch         = '0+dvsat_n18_rf_mis'  
+geo_fac='1/sqrt(wef*lef*mr)'
+lef=l
+wef=w
+atoxe_n18_rf=1e-024
+avth0_n18_rf=3.6e-009
+avsat_n18_rf = 1e-012
+au0_n18_rf   = 1.2e-010
*1.8v core nmos (tt corner)
+dtoxe_n18_rf     = 0             dxl_n18_rf       = 0            dxw_n18_rf       = 0 
+dcj_n18_rf       = 0             dcjsw_n18_rf     = 0            dcjswg_n18_rf    = 0
+dcgdo_n18_rf     = 0             dcgdl_n18_rf     = 0            dcf_n18_rf       = 0
+dvth0_n18_rf     = 0             dlvth0_n18_rf    = 0            dpvth0_n18_rf    = 0            
+du0_n18_rf       = 0             dlu0_n18_rf      = 0            dpu0_n18_rf      = 0  
+dvsat_n18_rf     = 0             dlvsat_n18_rf    = 0            dpvsat_n18_rf    = 0            
+dvoff_n18_rf     = 0             dwvth0_n18_rf    = 0            dwu0_n18_rf      = 0    
+dcgdext_n18_rf = 0
+dcgsext_n18_rf = 0
+drg_n18_rf = 0
+drshg_n18_rf = 0
+tc1r = 3.00e-03               tc2r = 9.75e-08   
+tcoef_temper = '1.0+(temper-25.0)*(tc1r+tc2r*(temper-25.0))'  
+rshg_n18_rf='(6.229+drshg_n18_rf)*tcoef_temper'
*****************************************
+kcgdl='0.5749*Log(lr*1e6)+1.9162'
+kdlc= '0.6197*pwr(lr*1e6,-0.336)'
+Cgd_rf = 'max((0.1754*pwr(lr*1000000,0.8196)*wr*1000000+0.2349*pwr(lr*1000000,2.0815)+0.35)*nf*1e-15*(0.4736*pwr(nf,-1.785)+0.999),1e-18)'  
+Cgs_rf = 'max((0.0312*exp(-2.228*lr*1e6)*wr*1e6+0.1664*log(lr*1e6)+0.6883)*nf*1e-15*(2.3304*pwr(nf,-0.836)+0.88),1e-18)'
+Cds_rf = 'max(max((-0.192*Log(lr*1e6)-0.1941)*wr*1e6+1/(0.00000264*pwr(lr*1e6,-7.76)+10.92),0.03)*nf*1e-15,1e-18)'
+Rg_rf =  'max(1/(0.0327*pwr(lr*1000000,1.0167)*pwr(wr*1000000,0.3525*EXP(1.1485*lr*1000000))*(nf+3)),1e-3)' 
+Rsub1_rf = 'max((-3.6736*nf+179.52)*(1/(27.288*pwr(lr*1e6,3.3796)+0.75)),5)'
+Rsub2_rf = '35'
+Djdb_AREA_rf = 'int(0.5*(nf+1))*(wr*(0.54-2*0.07)*1e-6)'                                                                                                      
+Djdb_PJ_rf   = 'int(0.5*(nf+1))*(2*(0.54-2*0.07)*1e-6+2*wr*11.6749)'                                                                                          
+Djsb_AREA_rf = 'int(0.5*nf+1)*wr*(0.54-2*0.07)*1e-6'                                                                                                          
+Djsb_PJ_rf   = 'int(0.5*nf+1)*(2*(0.54-2*0.07)*1e-6+2*wr*11.6749)'  
*****************************************
Lgate       2 20  1p                          m=mr
Rgate       20 21 'Rg_rf*(1+drg_n18_rf)'      m=mr
Cgd_ext     21 11 'Cgd_rf*(1+dcgdext_n18_rf)' m=mr
Cgs_ext     21 31 'Cgs_rf*(1+dcgsext_n18_rf)' m=mr
Cds_ext     15 31 'Cds_rf'                    m=mr
Rds         11 15 10                          m=mr
Ldrain       1 11 1p                          m=mr
Lsource      3 31 1p                          m=mr
*****************************************
Djdb  12 11 ndio18_rf AREA=Djdb_AREA_rf PJ=Djdb_PJ_rf m=mr
Djsb  32 31 ndio18_rf AREA=Djsb_AREA_rf PJ=Djsb_PJ_rf m=mr
*****************************************
Rsub1      41  4  Rsub1_rf m=mr
Rsub2      41  12 Rsub2_rf m=mr
Rsub3      41  32 Rsub2_rf m=mr
*****************************************
main 11 21 31 41 n18_ckt_r w='wr*nf' l=l sa=sar sb=sbr sd=sdr as=0 ad=0 ps=0 pd=0 nrd=nrdr nrs=nrsr sca=scar scb=scbr scc=sccr nf=nf m=mr
*****************************************
.model  ndio18_rf  d  level = 3
**************************************************************
+area    = 1.8e-008        pj      = 0.00072         tref    = 25                                                                                              
+js      = '1.1508e-006'     jsw     = '1.4205e-014'     vb      = 11.5            ibv     = 55.6                                                              
+ikr     = 55556           n       = '1.1294'          rs      = 5.0328e-010                                                                                   
+cj      = '0.00098714+DCJ_N18_RF'      cjsw     = '5.8272e-011*0.7+DCJSW_N18_RF'     pb      = 0.70413         php     = 0.58719                                  
+fcs     = 0               mj      = 0.34744         mjsw    = 0.2        fc      = 0                                                                     
+tlev    = 1               tlevc   = 1               trs     = 0.0019296       xti     = 3                                                                     
+cta     = 0.00083836      ctp     = 0.001           tpb     = 0.001395       tphp    = 0.000868                                                               
+eg      = 1.16            tcv     = -0.0004   

.inc 'mse018_v1p11_mis_rf.mdl'
.ends n18_ckt_rf


* 1.8v nmos in dnw with 4 ports(TT corner)
* 1=drain,2=gate,3=source,4=bulk
.subckt dnw18_ckt_rf 1 2 3 4 wr=2.5e-6 lr=1.8e-7 nf=16 sar=1.04e-006 sbr=1.04e-006 sdr=0.54e-6 nrdr=0.00675 nrsr=0.00915625 mr=1 scar=0 scbr=0 sccr=0 mismod=1
.param w='wr*nf' l=lr
.param
******mismatch******
+dtoxe_n18_rf_mis     = '0+atoxe_n18_rf*geo_fac*sigma_mis_a_rf*mismod'
+dvth0_n18_rf_mis     = '0+avth0_n18_rf*geo_fac*sigma_mis_b_rf*mismod'
+du0_n18_rf_mis       = '0+au0_n18_rf*geo_fac*sigma_mis_c_rf*mismod'
+dvsat_n18_rf_mis     = '0+avsat_n18_rf*geo_fac*sigma_mis_d_rf*mismod'
+dtoxe_n18_rf_mismatch         = '0+dtoxe_n18_rf_mis'               
+dvth0_n18_rf_mismatch         = '0+dvth0_n18_rf_mis'  
+du0_n18_rf_mismatch           = '0+du0_n18_rf_mis'               
+dvsat_n18_rf_mismatch         = '0+dvsat_n18_rf_mis'  
+geo_fac='1/sqrt(wef*lef*mr)'
+lef=l
+wef=w
+atoxe_n18_rf=1e-024
+avth0_n18_rf=3.6e-009
+avsat_n18_rf = 1e-012
+au0_n18_rf   = 1.2e-010
*1.8v core nmos (tt corner)
+dtoxe_n18_rf     = 0            dxl_n18_rf       = 0            dxw_n18_rf       = 0 
+dcj_n18_rf       = 0            dcjsw_n18_rf     = 0            dcjswg_n18_rf    = 0
+dcgdo_n18_rf     = 0            dcgdl_n18_rf     = 0            dcf_n18_rf       = 0
+dvth0_n18_rf     = 0            dlvth0_n18_rf    = 0            dpvth0_n18_rf    = 0            
+du0_n18_rf       = 0            dlu0_n18_rf      = 0            dpu0_n18_rf      = 0  
+dvsat_n18_rf     = 0            dlvsat_n18_rf    = 0            dpvsat_n18_rf    = 0            
+dvoff_n18_rf     = 0            dwvth0_n18_rf    = 0            dwu0_n18_rf      = 0  
+dcgdext_n18_rf   = 0
+dcgsext_n18_rf   = 0
+drg_n18_rf       = 0
+drshg_n18_rf     = 0
+tc1r = 3.00e-03               tc2r = 9.75e-08   
+tcoef_temper = '1.0+(temper-25.0)*(tc1r+tc2r*(temper-25.0))'  
+rshg_n18_rf='(6.229+drshg_n18_rf)*tcoef_temper'
*****************************************
+kcgdl='0.5749*Log(lr*1e6)+1.9162'
+kdlc= '0.6197*pwr(lr*1e6,-0.336)'
+Cgd_rf = 'max((0.1754*pwr(lr*1000000,0.8196)*wr*1000000+0.2349*pwr(lr*1000000,2.0815)+0.35)*nf*1e-15*(0.4736*pwr(nf,-1.785)+0.999),1e-18)'  
+Cgs_rf = 'max((0.0312*exp(-2.228*lr*1e6)*wr*1e6+0.1664*log(lr*1e6)+0.6883)*nf*1e-15*(2.3304*pwr(nf,-0.836)+0.88),1e-18)'
+Cds_rf = 'max(max((-0.192*Log(lr*1e6)-0.1941)*wr*1e6+1/(0.00000264*pwr(lr*1e6,-7.76)+10.92),0.03)*nf*1e-15,1e-18)'
+Rg_rf =  'max(1/(0.0327*pwr(lr*1000000,1.0167)*pwr(wr*1000000,0.3525*EXP(1.1485*lr*1000000))*(nf+3)),1e-3)' 
+Rsub1_rf = 'max((-3.6736*nf+179.52)*(1/(27.288*pwr(lr*1e6,3.3796)+0.75)),5)'
+Rsub2_rf = '35'
+Djdb_AREA_rf = 'int(0.5*(nf+1))*(wr*(0.54-2*0.07)*1e-6)'                                                                                                      
+Djdb_PJ_rf   = 'int(0.5*(nf+1))*(2*(0.54-2*0.07)*1e-6+2*wr*11.6749)'                                                                                          
+Djsb_AREA_rf = 'int(0.5*nf+1)*wr*(0.54-2*0.07)*1e-6'                                                                                                          
+Djsb_PJ_rf   = 'int(0.5*nf+1)*(2*(0.54-2*0.07)*1e-6+2*wr*11.6749)'  
*****************************************
Lgate       2 20  1p                          m=mr
Rgate       20 21 'Rg_rf*(1+drg_n18_rf)'      m=mr
Cgd_ext     21 11 'Cgd_rf*(1+dcgdext_n18_rf)' m=mr
Cgs_ext     21 31 'Cgs_rf*(1+dcgsext_n18_rf)' m=mr
Cds_ext     15 31 'Cds_rf'                    m=mr
Rds         11 15 10                       m=mr
Ldrain       1 11 1p                          m=mr
Lsource      3 31 1p                          m=mr
*****************************************
Djdb  12 11 ndio18_rf AREA=Djdb_AREA_rf PJ=Djdb_PJ_rf m=mr
Djsb  32 31 ndio18_rf AREA=Djsb_AREA_rf PJ=Djsb_PJ_rf m=mr
*****************************************
Rsub1      41  4  Rsub1_rf m=mr
Rsub2      41  12 Rsub2_rf m=mr
Rsub3      41  32 Rsub2_rf m=mr
*****************************************
main 11 21 31 41 n18_ckt_r w='wr*nf' l=l sa=sar sb=sbr sd=sdr as=0 ad=0 ps=0 pd=0 nrd=nrdr nrs=nrsr sca=scar scb=scbr scc=sccr nf=nf m=mr
*****************************************
.model  ndio18_rf  d  level = 3
**************************************************************
+area    = 1.8e-008        pj      = 0.00072         tref    = 25                                                                                              
+js      = '1.1508e-006'     jsw     = '1.4205e-014'     vb      = 11.5            ibv     = 55.6                                                              
+ikr     = 55556           n       = '1.1294'          rs      = 5.0328e-010                                                                                   
+cj      = '0.00098714+DCJ_N18_RF'      cjsw     = '5.8272e-011*0.7+DCJSW_N18_RF'     pb      = 0.70413         php     = 0.58719                                  
+fcs     = 0               mj      = 0.34744         mjsw    = 0.2        fc      = 0                                                                     
+tlev    = 1               tlevc   = 1               trs     = 0.0019296       xti     = 3                                                                     
+cta     = 0.00083836      ctp     = 0.001           tpb     = 0.001395       tphp    = 0.000868                                                               
+eg      = 1.16            tcv     = -0.0004   

.inc 'mse018_v1p11_mis_rf.mdl'
.ends dnw18_ckt_rf


* 1.8v nmos in dnw with 6 ports(TT corner)
* 1=drain,2=gate,3=source,4=bulk,5=dnw,6=psub
.subckt dnw18_6t_ckt_rf 1 2 3 4 5 6 wr=2.5e-6 lr=1.8e-7 nf=16 sar=1.04e-006 sbr=1.04e-006 sdr=0.54e-6 nrdr=0.00675 nrsr=0.00915625 mr=1 scar=0 scbr=0 sccr=0 mismod=1 arpw=162.01e-12 pjpw=55.12e-6 ardnw=190.57e-12 pjdnw=59.12e-6
.param w='wr*nf' l=lr
.param
******mismatch******
+dtoxe_n18_rf_mis     = '0+atoxe_n18_rf*geo_fac*sigma_mis_a_rf*mismod'
+dvth0_n18_rf_mis     = '0+avth0_n18_rf*geo_fac*sigma_mis_b_rf*mismod'
+du0_n18_rf_mis       = '0+au0_n18_rf*geo_fac*sigma_mis_c_rf*mismod'
+dvsat_n18_rf_mis     = '0+avsat_n18_rf*geo_fac*sigma_mis_d_rf*mismod'
+dtoxe_n18_rf_mismatch         = '0+dtoxe_n18_rf_mis'               
+dvth0_n18_rf_mismatch         = '0+dvth0_n18_rf_mis'  
+du0_n18_rf_mismatch           = '0+du0_n18_rf_mis'               
+dvsat_n18_rf_mismatch         = '0+dvsat_n18_rf_mis'  
+geo_fac='1/sqrt(wef*lef*mr)'
+lef=l
+wef=w
+atoxe_n18_rf=1e-024
+avth0_n18_rf=3.6e-009
+avsat_n18_rf = 1e-012
+au0_n18_rf   = 1.2e-010
*1.8v core nmos (tt corner)
+dtoxe_n18_rf     = 0            dxl_n18_rf       = 0            dxw_n18_rf       = 0 
+dcj_n18_rf       = 0            dcjsw_n18_rf     = 0            dcjswg_n18_rf    = 0
+dcgdo_n18_rf     = 0            dcgdl_n18_rf     = 0            dcf_n18_rf       = 0
+dvth0_n18_rf     = 0            dlvth0_n18_rf    = 0            dpvth0_n18_rf    = 0            
+du0_n18_rf       = 0            dlu0_n18_rf      = 0            dpu0_n18_rf      = 0  
+dvsat_n18_rf     = 0            dlvsat_n18_rf    = 0            dpvsat_n18_rf    = 0            
+dvoff_n18_rf     = 0            dwvth0_n18_rf    = 0            dwu0_n18_rf      = 0  
+dcgdext_n18_rf   = 0
+dcgsext_n18_rf   = 0
+drg_n18_rf       = 0
+drshg_n18_rf     = 0
+dcj_diobpw_rf    = 0.00           
+dcjsw_diobpw_rf  = 0.00
+dcj_dnwdio_rf    = 0.00           
+dcjsw_dnwdio_rf  = 0.00
+tc1r = 3.00e-03               tc2r = 9.75e-08   
+tcoef_temper = '1.0+(temper-25.0)*(tc1r+tc2r*(temper-25.0))'  
+rshg_n18_rf='(6.229+drshg_n18_rf)*tcoef_temper'
*****************************************
+kcgdl='0.5749*Log(lr*1e6)+1.9162'
+kdlc= '0.6197*pwr(lr*1e6,-0.336)'
+Cgd_rf = 'max((0.1754*pwr(lr*1000000,0.8196)*wr*1000000+0.2349*pwr(lr*1000000,2.0815)+0.35)*nf*1e-15*(0.4736*pwr(nf,-1.785)+0.999),1e-18)'  
+Cgs_rf = 'max((0.0312*exp(-2.228*lr*1e6)*wr*1e6+0.1664*log(lr*1e6)+0.6883)*nf*1e-15*(2.3304*pwr(nf,-0.836)+0.88),1e-18)'
+Cds_rf = 'max(max((-0.192*Log(lr*1e6)-0.1941)*wr*1e6+1/(0.00000264*pwr(lr*1e6,-7.76)+10.92),0.03)*nf*1e-15,1e-18)'
+Rg_rf =  'max(1/(0.0327*pwr(lr*1000000,1.0167)*pwr(wr*1000000,0.3525*EXP(1.1485*lr*1000000))*(nf+3)),1e-3)' 
+Rsub1_rf = 'max((-3.6736*nf+179.52)*(1/(27.288*pwr(lr*1e6,3.3796)+0.75)),5)'
+Rsub2_rf = '35'
+Djdb_AREA_rf = 'int(0.5*(nf+1))*(wr*(0.54-2*0.07)*1e-6)'                                                                                                      
+Djdb_PJ_rf   = 'int(0.5*(nf+1))*(2*(0.54-2*0.07)*1e-6+2*wr*11.6749)'                                                                                          
+Djsb_AREA_rf = 'int(0.5*nf+1)*wr*(0.54-2*0.07)*1e-6'                                                                                                          
+Djsb_PJ_rf   = 'int(0.5*nf+1)*(2*(0.54-2*0.07)*1e-6+2*wr*11.6749)'  
*****************************************
Lgate       2 20  1p                          m=mr
Rgate       20 21 'Rg_rf*(1+drg_n18_rf)'      m=mr
Cgd_ext     21 11 'Cgd_rf*(1+dcgdext_n18_rf)' m=mr
Cgs_ext     21 31 'Cgs_rf*(1+dcgsext_n18_rf)' m=mr
Cds_ext     15 31 'Cds_rf'                    m=mr
Rds         11 15 10                       m=mr
Ldrain       1 11 1p                          m=mr
Lsource      3 31 1p                          m=mr
*****************************************
Djdb  12 11 ndio18_rf AREA=Djdb_AREA_rf PJ=Djdb_PJ_rf m=mr
Djsb  32 31 ndio18_rf AREA=Djsb_AREA_rf PJ=Djsb_PJ_rf m=mr
djbdn  4 5 diobpw_rf area=arpw pj=pjpw m=mr
djpsub 6 5 dnwdio_rf area=ardnw pj=pjdnw m=mr
*****************************************
Rsub1      41  4  Rsub1_rf m=mr
Rsub2      41  12 Rsub2_rf m=mr
Rsub3      41  32 Rsub2_rf m=mr
*****************************************
main 11 21 31 41 n18_ckt_r w='wr*nf' l=l sa=sar sb=sbr sd=sdr as=0 ad=0 ps=0 pd=0 nrd=nrdr nrs=nrsr sca=scar scb=scbr scc=sccr nf=nf m=mr
*****************************************
.model  ndio18_rf  d  level = 3
**************************************************************
+area    = 1.8e-008        pj      = 0.00072         tref    = 25                                                                                              
+js      = '1.1508e-006'     jsw     = '1.4205e-014'     vb      = 11.5            ibv     = 55.6                                                              
+ikr     = 55556           n       = '1.1294'          rs      = 5.0328e-010                                                                                   
+cj      = '0.00098714+DCJ_N18_RF'      cjsw     = '5.8272e-011*0.7+DCJSW_N18_RF'     pb      = 0.70413         php     = 0.58719                                  
+fcs     = 0               mj      = 0.34744         mjsw    = 0.2        fc      = 0                                                                     
+tlev    = 1               tlevc   = 1               trs     = 0.0019296       xti     = 3                                                                     
+cta     = 0.00083836      ctp     = 0.001           tpb     = 0.001395       tphp    = 0.000868                                                               
+eg      = 1.16            tcv     = -0.0004   

***********************************************************************************
*                        buried pwell/deep nwell diode model                      * 
***********************************************************************************
.model diobpw_rf d    
+level    = 3                   
+area    = 1.8e-008        pj      = 0.00072         tref    = 25
+js      = '1.0388e-006'     jsw     = '1.4035e-013'     vb      = 15.5            ibv     = 55.6
+ikr     = 55556           n       = '1.1225'          rs      = 1.8727e-010
+cj      = '0.00049858+dcj_diobpw_rf'      cjsw     = '3.9867e-010+dcjsw_diobpw_rf'     pb      = 0.67589         php     = 0.88873
+fcs     = 0               mj      = 0.33041         mjsw    = 0.444           fc      = 0
+tlev    = 1               tlevc   = 1               trs     = 0.00035608      xti     = 3
+cta     = 0.00090633      ctp     = 0.00080455      tpb     = 0.001448        tphp    = 0.0012196
+eg      = 1.16            tcv     = -0.0005

***********************************************************************************
*                        deep nwell/pusb diode model                              * 
***********************************************************************************
.model  dnwdio_rf  d  level = 3
+area    = 1.8e-008     pj      = 0.00072        tref    = 25
+js      = '2.1632e-006'     jsw     = '1.177e-012'      vb      = 16              ibv     = 55.556
+ikr     = 55556           n       = '1.0435'          rs      = 1.3973e-007
+cj      = '0.00013824+dcj_dnwdio_rf'      cjsw     = '4.1094e-010+dcjsw_dnwdio_rf'     pb      = 0.52465         php     = 0.62598
+fcs     = 0               mj      = 0.32294         mjsw    = 0.35115         fc      = 0
+tlev    = 1               tlevc   = 1               trs     = 1e-005          xti     = 3
+cta     = 0.001326        ctp     = 0.001221        tpb     = 0.0013127       tphp    = 0.0015078
+eg      = 1.16            gap1    = 7.02e-04        tcv     = -0.0006
*
.inc 'mse018_v1p11_mis_rf.mdl'
.ends dnw18_6t_ckt_rf

* 1.8v pmos (TT corner)
* 1=drain,2=gate,3=source,4=bulk
.subckt p18_ckt_rf 1 2 3 4 wr=1e-6 lr=1e-6 nf=1 sar=1.04e-006 sbr=1.04e-006 sdr=0.54e-6 nrdr=0.001 nrsr=0.001 mr=1 scar=0 scbr=0 sccr=0 mismod=1
.param w='wr*nf' l=lr
.param
******mismatch******
+dtoxe_p18_mis                 = '0+atoxe_p18_rf*geo_fac*sigma_mis_a_rf*mismod'
+dvth0_p18_mis                 = '0+avth0_p18_rf*geo_fac*sigma_mis_b_rf*mismod'
+du0_p18_mis                   = '0+au0_p18_rf*geo_fac*sigma_mis_c_rf*mismod'
+dvoff_p18_mis                 = '0+avoff_p18_rf*geo_fac*sigma_mis_d_rf*mismod'
+dvsat_p18_mis                 = '0+avsat_p18_rf*geo_fac*sigma_mis_e_rf*mismod'
+dtoxe_p18_mismatch_rf         = '0+dtoxe_p18_mis'
+dvth0_p18_mismatch_rf         = '0+dvth0_p18_mis'
+du0_p18_mismatch_rf           = '0+du0_p18_mis'
+dvoff_p18_mismatch_rf         = '0+dvoff_p18_mis'
+dvsat_p18_mismatch_rf         = '0+dvsat_p18_mis'
+geo_fac='1/sqrt(wef*lef*mr)'
+lef=l
+wef=w
+atoxe_p18_rf= 1e-024
+avth0_p18_rf= 3e-009
+avoff_p18_rf = 8.28e-012
+au0_p18_rf   = 3.8e-011
+avsat_p18_rf = 1e-07
*1.8v core pmos (tt corner)
+dtoxe_p18_rf     = 0            dxl_p18_rf       = 0            dxw_p18_rf       = 0
+dcj_p18_rf       = 0            dcjsw_p18_rf     = 0            dcjswg_p18_rf    = 0
+dcgdo_p18_rf     = 0            dcgdl_p18_rf     = 0            dcf_p18_rf       = 0
+dvth0_p18_rf     = 0            dlvth0_p18_rf    = 0            dpvth0_p18_rf    = 0
+du0_p18_rf       = 0            dlu0_p18_rf      = 0            dpu0_p18_rf      = 0
+dvsat_p18_rf     = 0            dlvsat_p18_rf    = 0            dpvsat_p18_rf    = 0
+dvoff_p18_rf     = 0            dwvth0_p18_rf    = 0            dwu0_p18_rf      = 0
+dlpe0_p18_rf     = 0            dminv_p18_rf     = 0            dlminv_p18_rf    = 0
+dcj_pdio18_rf    = 0
+dcjp_pdio18_rf   = 0
+dcgdext_p18_rf   = 0
+dcgsext_p18_rf   = 0
+drg_p18_rf       = 0
+drshg_p18_rf     = 0
+tc1r = 3.00e-03               tc2r = 2.76e-07            
+tcoef_temper = '1.0+(temper-25.0)*(tc1r+tc2r*(temper-25.0))'
+rshg_p18_rf='(7.196+drshg_p18_rf)*tcoef_temper'
*****************************************
+Cgd_rf = '((0.4477e-15*(wr*1e+6)^0.7545+0.1652e-15)*(lr*1e+6)^0.36+(-0.3216e-15*(wr*1e+6)^0.6796+0.2989e-15))*nf'
+Cgs_rf = '((0.144e-15*(wr*1e+6)^0.6414+0.3587e-15)*(lr*1e+6)^0.36+(-0.171e-15*(wr*1e+6)^0.664+0.2733e-15))*nf+1.2e-15'
+Rg_rf = '((91.5*(wr*1e+6)^-1.6+1.2)*(lr*1e+6)^-1)*(nf+6)^-1*0.75'
+Rsub1_rf = '200/nf'
+Rsub2_rf = '((268.7*(wr*1e+6)^-0.5+77.85)*(lr*1e+6)^-1-286.8)*(nf+4)^-1'
+Djdb_AREA_rf = 'int(0.5*(nf+1))*(wr*(0.54-2*0.07)*1e-6)'
+Djdb_PJ_rf   = 'int(0.5*(nf+1))*(2*(0.54-2*0.07)*1e-6+2*wr*8.7477)'
+Djsb_AREA_rf = 'int(0.5*nf+1)*wr*(0.54-2*0.07)*1e-6'
+Djsb_PJ_rf   = 'int(0.5*nf+1)*(2*(0.54-2*0.07)*1e-6+2*wr*8.7477)'
*****************************************
Lgate       2 20  1p                          m=mr
Rgate       20 21 'Rg_rf*(1+drg_p18_rf)'      m=mr
Cgd_ext     21 11 'Cgd_rf*(1+dcgdext_p18_rf)' m=mr
Cgs_ext     21 31 'Cgs_rf*(1+dcgsext_p18_rf)' m=mr
Cds_ext     15 31 1e-18                       m=mr
Rds         11 15 1e-3                        m=mr
Ldrain       1 11 1p                          m=mr
Lsource      3 31 1p                          m=mr
*****************************************
Djdb  11 12 pdio18_rf AREA=Djdb_AREA_rf PJ=Djdb_PJ_rf m=mr
Djsb  31 32 pdio18_rf AREA=Djsb_AREA_rf PJ=Djsb_PJ_rf m=mr
*****************************************
Rsub1      41  4  Rsub1_rf m=mr
Rsub2      41  12 Rsub2_rf m=mr
Rsub3      41  32 Rsub2_rf m=mr
*****************************************
main 11 21 31 41 p18_ckt_r w='wr*nf' l=l sa=sar sb=sbr sd=sdr as=0 ad=0 ps=0 pd=0 nrd=nrdr nrs=nrsr sca=scar scb=scbr scc=sccr nf=nf m=mr
*****************************************
.model  pdio18_rf  d  level = 3
**************************************************************
*               GENERAL PARAMETERS
**************************************************************
+dcap    = 2               area    = 4e-010          pj      = 8e-005          tref    = 25
**************************************************************
*               DC PARAMETERS
**************************************************************
+is      = '9.5099e-008'     jsw     = '2.9999e-014'     vb      = 10.6            ibv     = 2500
+ikr     = 2.5e+006        n       = '0.99836'         rs      = 3.6817e-010
**************************************************************
*               CAPACITANCE PARAMETERS
**************************************************************
+cj      = '0.001*(1+dcj_pdio18_rf)'       cjp     = '8.0e-011*(1+dcjp_pdio18_rf)'     pb      = 0.84022         php     = 0.43076
+fcs     = 0               mj      = 0.31824         mjsw    = 0.21959          fc      = 0
**************************************************************
*               NOISE PARAMETERS
**************************************************************
**************************************************************
*               TEMPERATURE PARAMETERS
**************************************************************
+tlev    = 1               tlevc   = 1               trs     = 0.0022422       xti     = 3
+cta     = 0.0010193       ctp     = 0.00040931      tpb     = 0.0014196       tphp    = 0.0009004
+eg      = 1.16

.inc 'mse018_v1p11_mis_rf.mdl'
.ends p18_ckt_rf

* 1.8v pmos with psub as 5th terminal(TT corner)
* 1=drain,2=gate,3=source,4=bulk,5=psub
.subckt p18_5t_ckt_rf 1 2 3 4 5 wr=1e-6 lr=1e-6 nf=1 sar=1.04e-006 sbr=1.04e-006 sdr=0.54e-6 nrdr=0.001 nrsr=0.001 mr=1 scar=0 scbr=0 sccr=0 mismod=1 arnw=1e-12 pjnw=4e-6
.param w='wr*nf' l=lr
.param
******mismatch******
+dtoxe_p18_mis                 = '0+atoxe_p18_rf*geo_fac*sigma_mis_a_rf*mismod'
+dvth0_p18_mis                 = '0+avth0_p18_rf*geo_fac*sigma_mis_b_rf*mismod'
+du0_p18_mis                   = '0+au0_p18_rf*geo_fac*sigma_mis_c_rf*mismod'
+dvoff_p18_mis                 = '0+avoff_p18_rf*geo_fac*sigma_mis_d_rf*mismod'
+dvsat_p18_mis                 = '0+avsat_p18_rf*geo_fac*sigma_mis_e_rf*mismod'
+dtoxe_p18_mismatch_rf         = '0+dtoxe_p18_mis'
+dvth0_p18_mismatch_rf         = '0+dvth0_p18_mis'
+du0_p18_mismatch_rf           = '0+du0_p18_mis'
+dvoff_p18_mismatch_rf         = '0+dvoff_p18_mis'
+dvsat_p18_mismatch_rf         = '0+dvsat_p18_mis'
+geo_fac='1/sqrt(wef*lef*mr)'
+lef=l
+wef=w
+atoxe_p18_rf= 1e-024
+avth0_p18_rf= 3e-009
+avoff_p18_rf = 8.28e-012
+au0_p18_rf   = 3.8e-011
+avsat_p18_rf = 1e-07
*1.8v core pmos (tt corner)
+dtoxe_p18_rf     = 0            dxl_p18_rf       = 0            dxw_p18_rf       = 0
+dcj_p18_rf       = 0            dcjsw_p18_rf     = 0            dcjswg_p18_rf    = 0
+dcgdo_p18_rf     = 0            dcgdl_p18_rf     = 0            dcf_p18_rf       = 0
+dvth0_p18_rf     = 0            dlvth0_p18_rf    = 0            dpvth0_p18_rf    = 0
+du0_p18_rf       = 0            dlu0_p18_rf      = 0            dpu0_p18_rf      = 0
+dvsat_p18_rf     = 0            dlvsat_p18_rf    = 0            dpvsat_p18_rf    = 0
+dvoff_p18_rf     = 0            dwvth0_p18_rf    = 0            dwu0_p18_rf      = 0
+dlpe0_p18_rf     = 0            dminv_p18_rf     = 0            dlminv_p18_rf    = 0
+dcj_pdio18_rf    = 0
+dcjp_pdio18_rf   = 0
+dcgdext_p18_rf   = 0
+dcgsext_p18_rf   = 0
+drg_p18_rf       = 0
+drshg_p18_rf     = 0
+dcj_nwdio_rf     = 0
+dcjp_nwdio_rf    = 0  
+tc1r = 3.00e-03               tc2r = 2.76e-07            
+tcoef_temper = '1.0+(temper-25.0)*(tc1r+tc2r*(temper-25.0))'
+rshg_p18_rf='(7.196+drshg_p18_rf)*tcoef_temper'
*****************************************
+Cgd_rf = '((0.4477e-15*(wr*1e+6)^0.7545+0.1652e-15)*(lr*1e+6)^0.36+(-0.3216e-15*(wr*1e+6)^0.6796+0.2989e-15))*nf'
+Cgs_rf = '((0.144e-15*(wr*1e+6)^0.6414+0.3587e-15)*(lr*1e+6)^0.36+(-0.171e-15*(wr*1e+6)^0.664+0.2733e-15))*nf+1.2e-15'
+Rg_rf = '((91.5*(wr*1e+6)^-1.6+1.2)*(lr*1e+6)^-1)*(nf+6)^-1*0.75'
+Rsub1_rf = '200/nf'
+Rsub2_rf = '((268.7*(wr*1e+6)^-0.5+77.85)*(lr*1e+6)^-1-286.8)*(nf+4)^-1'
+Djdb_AREA_rf = 'int(0.5*(nf+1))*(wr*(0.54-2*0.07)*1e-6)'
+Djdb_PJ_rf   = 'int(0.5*(nf+1))*(2*(0.54-2*0.07)*1e-6+2*wr*8.7477)'
+Djsb_AREA_rf = 'int(0.5*nf+1)*wr*(0.54-2*0.07)*1e-6'
+Djsb_PJ_rf   = 'int(0.5*nf+1)*(2*(0.54-2*0.07)*1e-6+2*wr*8.7477)'
*****************************************
Lgate       2 20  1p                          m=mr
Rgate       20 21 'Rg_rf*(1+drg_p18_rf)'      m=mr
Cgd_ext     21 11 'Cgd_rf*(1+dcgdext_p18_rf)' m=mr
Cgs_ext     21 31 'Cgs_rf*(1+dcgsext_p18_rf)' m=mr
Cds_ext     15 31 1e-18                       m=mr
Rds         11 15 1e-3                        m=mr
Ldrain       1 11 1p                          m=mr
Lsource      3 31 1p                          m=mr
*****************************************
Djdb  11 12 pdio18_rf AREA=Djdb_AREA_rf PJ=Djdb_PJ_rf m=mr
Djsb  31 32 pdio18_rf AREA=Djsb_AREA_rf PJ=Djsb_PJ_rf m=mr
Djnw  5 4   nwdio_rf  AREA=arnw PJ=pjnw               m=mr 
*****************************************
Rsub1      41  4  Rsub1_rf m=mr
Rsub2      41  12 Rsub2_rf m=mr
Rsub3      41  32 Rsub2_rf m=mr
*****************************************
main 11 21 31 41 p18_ckt_r w='wr*nf' l=l sa=sar sb=sbr sd=sdr as=0 ad=0 ps=0 pd=0 nrd=nrdr nrs=nrsr sca=scar scb=scbr scc=sccr nf=nf m=mr
*****************************************
.model  pdio18_rf  d  level = 3
**************************************************************
*               GENERAL PARAMETERS
**************************************************************
+dcap    = 2               area    = 4e-010          pj      = 8e-005          tref    = 25
**************************************************************
*               DC PARAMETERS
**************************************************************
+is      = '9.5099e-008'     jsw     = '2.9999e-014'     vb      = 10.6            ibv     = 2500
+ikr     = 2.5e+006        n       = '0.99836'         rs      = 3.6817e-010
**************************************************************
*               CAPACITANCE PARAMETERS
**************************************************************
+cj      = '0.001*(1+dcj_pdio18_rf)'       cjp     = '8.0e-011*(1+dcjp_pdio18_rf)'     pb      = 0.84022         php     = 0.43076
+fcs     = 0               mj      = 0.31824         mjsw    = 0.21959          fc      = 0
**************************************************************
*               NOISE PARAMETERS
**************************************************************
**************************************************************
*               TEMPERATURE PARAMETERS
**************************************************************