* 
* No part of this file can be released without the consent of SMIC.
*
************************************************************************************************************
* smic 0.18um mixed signal 1p6m 1.8v/3.3v spice model(for HSPICE only) *
************************************************************************************************************
*
* Release version    : 1.11
*
* Release date       : 17/03/2015
*
* Simulation tool    : Synopsys Star-HSPICE version C-2009.09
*
*  Inductor   :
* *  *------------------------*---------------------------------------------------------*
*    |  Turn, Radius & Width  |  T=2~7.5 step 0.5,W=3~15um,R=1.7071*W+11.878~90um       |
* *  *------------------------*---------------------------------------------------------*
*    |        Model Name      |              ind_rf                          |
* *  *------------------------*---------------------------------------------------------*
.subckt ind_rf PLUS MINUS R=6e-05 w=8e-06 n=3
.param radius_='0.0111111*(R/1e-06-0)' w_='0.0666667*(w/1e-06-0)'
.param T60='(1-abs(sgn(n-(2.5))))'
.param T61='(min(sgn(radius_-(0.444722))+1,1))'
.param T62='(min(sgn(w_+6.944444e-01*radius_-(0.909235))+1,1))'
.param T63='(min(sgn(w_-(0.6004))+1,1))'
.param T64='(min(sgn(radius_-(0.444167))+1,1))'
.param T65='(min(sgn(radius_-(0.7225))+1,1))'
.param T66='(min(sgn(w_+6.944444e-01*radius_-(0.908049))+1,1))'
.param T67='(min(sgn(w_-(0.5996))+1,1))'
.param T68='(min(sgn(radius_-(0.721944))+1,1))'
.param T69='(1-abs(sgn(n-(2))))'
.param T70='(1-abs(sgn(n-(3.5))))'
.param T71='(1-abs(sgn(n-(3))))'
.param T72='(1-abs(sgn(n-(4.5))))'
.param T73='(1-abs(sgn(n-(4))))'
.param T74='(1-abs(sgn(n-(5.5))))'
.param T75='(1-abs(sgn(n-(5))))'
.param T76='(1-abs(sgn(n-(6.5))))'
.param T77='(1-abs(sgn(n-(6))))'
.param T78='(1-abs(sgn(n-(7.5))))'
.param T79='(1-abs(sgn(n-(7))))'
.param S0='T60*(1-T61)*(1-T62)'
.param noS0='(1-S0)'
.param S1='T60*(1-T63)*T64*(1-T65)*noS0'
.param noS1='(1-S1)*noS0'
.param S2='T60*T66*T67*(1-T65)*noS1'
.param noS2='(1-S2)*noS1'
.param S3='T60*(1-T63)*T68*noS2'
.param noS3='(1-S3)*noS2'
.param S4='T60*T68*T67*noS3'
.param noS4='(1-S4)*noS3'
.param S5='T69*(1-T61)*(1-T62)*noS4'
.param noS5='(1-S5)*noS4'
.param S6='T69*(1-T63)*T64*(1-T65)*noS5'
.param noS6='(1-S6)*noS5'
.param S7='T69*T66*T67*(1-T65)*noS6'
.param noS7='(1-S7)*noS6'
.param S8='T69*(1-T63)*T68*noS7'
.param noS8='(1-S8)*noS7'
.param S9='T69*T68*T67*noS8'
.param noS9='(1-S9)*noS8'
.param S10='T70*(1-T61)*noS9'
.param noS10='(1-S10)*noS9'
.param S11='T70*T64*(1-T65)*noS10'
.param noS11='(1-S11)*noS10'
.param S12='T70*T68*noS11'
.param noS12='(1-S12)*noS11'
.param S13='T71*(1-T61)*(1-T62)*noS12'
.param noS13='(1-S13)*noS12'
.param S14='T71*(1-T63)*T64*(1-T65)*noS13'
.param noS14='(1-S14)*noS13'
.param S15='T71*T66*T67*(1-T65)*noS14'
.param noS15='(1-S15)*noS14'
.param S16='T71*(1-T63)*T68*noS15'
.param noS16='(1-S16)*noS15'
.param S17='T71*T68*T67*noS16'
.param noS17='(1-S17)*noS16'
.param S18='T72*(1-T61)*noS17'
.param noS18='(1-S18)*noS17'
.param S19='T72*T64*(1-T65)*noS18'
.param noS19='(1-S19)*noS18'
.param S20='T72*T68*noS19'
.param noS20='(1-S20)*noS19'
.param S21='T73*(1-T61)*noS20'
.param noS21='(1-S21)*noS20'
.param S22='T73*T64*(1-T65)*noS21'
.param noS22='(1-S22)*noS21'
.param S23='T73*T68*noS22'
.param noS23='(1-S23)*noS22'
.param S24='T74*(1-T61)*noS23'
.param noS24='(1-S24)*noS23'
.param S25='T74*T64*(1-T65)*noS24'
.param noS25='(1-S25)*noS24'
.param S26='T74*T68*noS25'
.param noS26='(1-S26)*noS25'
.param S27='T75*(1-T61)*noS26'
.param noS27='(1-S27)*noS26'
.param S28='T75*T64*(1-T65)*noS27'
.param noS28='(1-S28)*noS27'
.param S29='T75*T68*noS28'
.param noS29='(1-S29)*noS28'
.param S30='T76*(1-T61)*noS29'
.param noS30='(1-S30)*noS29'
.param S31='T76*T64*(1-T65)*noS30'
.param noS31='(1-S31)*noS30'
.param S32='T76*T68*noS31'
.param noS32='(1-S32)*noS31'
.param S33='T77*(1-T61)*noS32'
.param noS33='(1-S33)*noS32'
.param S34='T77*T64*(1-T65)*noS33'
.param noS34='(1-S34)*noS33'
.param S35='T77*T68*noS34'
.param noS35='(1-S35)*noS34'
.param S36='T78*(1-T61)*noS35'
.param noS36='(1-S36)*noS35'
.param S37='T78*T64*(1-T65)*noS36'
.param noS37='(1-S37)*noS36'
.param S38='T78*T68*noS37'
.param noS38='(1-S38)*noS37'
.param S39='T79*(1-T61)*noS38'
.param noS39='(1-S39)*noS38'
.param S40='T79*T64*(1-T65)*noS39'
.param noS40='(1-S40)*noS39'
.param S41='T79*T68*noS40'
.param noS41='(1-S41)*noS40'
.param V0_part1='3.985390e-01*S0+(-2.288517e+00)*S1+5.634825e-01*S2+(-1.958793e+00)*S3+(-5.865080e+00)*S4+3.437324e+00*S5+(-1.574767e-01)*S6+1.802128e+00*S7+(-5.730958e-01)*S8+(-7.648988e+00)*S9'
.param V0_part2='V0_part1+1.617362e+00*S10+0.000000e+00*S11+(-3.488074e+00)*S12+(-3.088809e-01)*S13+2.983931e+00*S14+(-9.590618e-01)*S15+0.000000e+00*S16+(-3.676782e+00)*S17+0.000000e+00*S18+0.000000e+00*S19'
.param V0_part3='V0_part2+(-2.627158e+00)*S20+0.000000e+00*S21+(-2.150748e+00)*S22+0.000000e+00*S23+(-9.755381e-01)*S24+(-3.022077e+00)*S25+0.000000e+00*S26+0.000000e+00*S27+(-1.582405e-01)*S28+4.029592e-02*S29'
.param V0_part4='V0_part3+(-1.436199e+00)*S30+(-1.148209e-01)*S31+0.000000e+00*S32+(-7.222603e-02)*S33+1.430872e-02*S34+(-1.801973e-01)*S35+0.000000e+00*S36+0.000000e+00*S37+(-3.739412e+00)*S38+1.262085e+00*S39'
.param V0='V0_part4+0.000000e+00*S40+(-1.076697e+01)*S41'
.param V1_part1='7.658523e+00*S0+1.964781e+01*S1+5.573710e+00*S2+6.015491e+00*S3+2.101111e+01*S4+3.010454e+00*S5+1.771942e+01*S6+3.395943e+00*S7+1.758692e+01*S8+2.201347e+01*S9'
.param V1_part2='V1_part1+1.094204e+00*S10+0.000000e+00*S11+1.826252e+01*S12+5.215191e+00*S13+2.247533e-03*S14+1.591490e+01*S15+0.000000e+00*S16+2.091132e+01*S17+0.000000e+00*S18+0.000000e+00*S19'
.param V1_part3='V1_part2+1.218216e+01*S20+0.000000e+00*S21+1.648662e+01*S22+0.000000e+00*S23+2.020181e+01*S24+1.912790e+01*S25+0.000000e+00*S26+0.000000e+00*S27+1.050529e+01*S28+4.731693e+00*S29'
.param V1_part4='V1_part3+1.656252e+01*S30+7.519784e-02*S31+0.000000e+00*S32+1.520140e+01*S33+1.527080e+01*S34+1.444997e+01*S35+0.000000e+00*S36+0.000000e+00*S37+1.588514e+01*S38+1.366808e+01*S39'
.param V1='V1_part4+0.000000e+00*S40+1.513587e+01*S41'
.param V2_part1='3.162898e-01*S0+4.493995e+00*S1+2.816422e+00*S2+4.989757e+00*S3+(-5.978055e+00)*S4+(-3.797963e+00)*S5+(-4.035935e+00)*S6+1.057841e+00*S7+(-1.490302e+01)*S8+(-1.850793e+00)*S9'
.param V2_part2='V2_part1+9.739863e-01*S10+0.000000e+00*S11+(-1.196249e+01)*S12+1.871138e+00*S13+2.847095e+00*S14+2.187812e+00*S15+0.000000e+00*S16+4.250641e+00*S17+0.000000e+00*S18+0.000000e+00*S19'
.param V2_part3='V2_part2+(-1.111248e+00)*S20+0.000000e+00*S21+4.677533e+00*S22+0.000000e+00*S23+8.551933e+00*S24+1.180495e+01*S25+0.000000e+00*S26+0.000000e+00*S27+7.109069e-02*S28+3.542413e+00*S29'
.param V2_part4='V2_part3+4.598689e+00*S30+1.688026e+01*S31+0.000000e+00*S32+1.608726e+00*S33+(-2.887320e+00)*S34+(-5.498282e-01)*S35+0.000000e+00*S36+0.000000e+00*S37+7.185200e+00*S38+1.200065e+00*S39'
.param V2='V2_part4+0.000000e+00*S40+1.624581e-01*S41'
.param V3_part1='(-5.086318e-01)*S0+(-1.666454e+00)*S1+6.551478e-01*S2+7.926928e-01*S3+(-9.036834e-01)*S4+(-6.401197e-01)*S5+(-9.219478e-01)*S6+2.141287e+00*S7+(-1.866846e+00)*S8+(-6.234483e-01)*S9'
.param V3_part2='V3_part1+(-1.078128e-01)*S10+(-1.890887e+00)*S11+(-5.321143e+00)*S12+(-1.471397e+00)*S13+(-1.758897e+00)*S14+(-3.694665e-01)*S15+3.970089e-01*S16+(-1.033010e+00)*S17+(-1.301655e+00)*S18+(-2.864516e+00)*S19'
.param V3_part3='V3_part2+(-5.853030e-01)*S20+(-1.470865e+00)*S21+(-2.616547e+00)*S22+(-9.327788e-01)*S23+(-2.212609e+00)*S24+(-2.543063e+00)*S25+(-5.770013e+00)*S26+(-4.621301e-01)*S27+(-1.014467e+00)*S28+6.510957e-01*S29'
.param V3_part4='V3_part3+(-2.413413e+00)*S30+(-2.717566e+00)*S31+(-3.993186e+01)*S32+(-1.848928e-01)*S33+(-5.032748e+00)*S34+(-5.964708e+00)*S35+(-8.191784e-01)*S36+(-2.217119e+00)*S37+(-1.082177e+01)*S38+(-6.118943e-02)*S39'
.param V3='V3_part4+(-1.198752e+00)*S40+(-5.100407e+01)*S41'
.param V4_part1='(-3.030746e-01)*S0+4.757088e+00*S1+(-1.036001e+00)*S2+(-2.008637e+00)*S3+1.897272e+00*S4+3.190063e+00*S5+1.017682e+00*S6+(-3.648642e+00)*S7+2.981893e+00*S8+1.133451e+00*S9'
.param V4_part2='V4_part1+(-1.062747e+00)*S10+(-9.976251e-01)*S11+9.128155e+00*S12+7.644196e+00*S13+4.710130e+00*S14+1.587099e+00*S15+(-1.018012e+00)*S16+2.113388e+00*S17+8.822365e+00*S18+8.928717e+00*S19'
.param V4_part3='V4_part2+2.841530e-02*S20+9.000384e+00*S21+8.280415e+00*S22+4.526142e-02*S23+1.672246e+01*S24+1.008850e+01*S25+1.136563e+01*S26+(-9.185324e-01)*S27+(-5.170789e-01)*S28+(-2.522778e+00)*S29'
.param V4_part4='V4_part3+2.014585e+01*S30+1.146195e+01*S31+8.469307e+01*S32+1.071761e+00*S33+1.808034e+01*S34+1.155876e+01*S35+1.460057e+01*S36+1.207637e+01*S37+2.156946e+01*S38+1.421376e+00*S39'
.param V4='V4_part4+4.281367e+00*S40+1.079896e+02*S41'
.param V5_part1='2.003511e+00*S0+5.398670e-01*S1+5.278480e+00*S2+3.722306e+00*S3+7.065587e-01*S4+2.406223e-01*S5+1.102692e+00*S6+1.017270e+01*S7+5.828565e-01*S8+5.616177e-01*S9'
.param V5_part2='V5_part1+2.042986e+00*S10+3.843229e+00*S11+1.147986e+00*S12+4.282797e-01*S13+6.276933e-01*S14+4.952102e-01*S15+2.390050e+00*S16+8.181928e-01*S17+5.413850e-01*S18+9.059899e-01*S19'
.param V5_part3='V5_part2+3.193236e+00*S20+4.876243e-01*S21+7.530507e-01*S22+2.956425e+00*S23+7.212123e-01*S24+9.848546e-01*S25+1.637893e+00*S26+3.017612e+00*S27+3.712150e+00*S28+4.748411e+00*S29'
.param V5_part4='V5_part3+8.641450e-01*S30+1.185907e+00*S31+1.876870e+00*S32+2.499326e+00*S33+1.170749e+00*S34+1.713536e+00*S35+8.088107e-01*S36+1.279248e+00*S37+2.646765e+00*S38+3.006074e+00*S39'
.param V5='V5_part4+1.479734e+00*S40+1.771278e+00*S41'
.param V6_part1='5.631525e-02*S0+(-4.527483e-02)*S1+2.433467e-01*S2+1.988157e-01*S3+(-8.611867e-02)*S4+(-1.012093e-02)*S5+(-3.492312e-03)*S6+7.762928e-03*S7+(-5.495205e-02)*S8+(-6.935987e-02)*S9'
.param V6_part2='V6_part1+6.653515e-02*S10+1.177488e-01*S11+(-2.575131e-01)*S12+(-3.753328e-02)*S13+(-4.941885e-02)*S14+(-5.138858e-02)*S15+1.770887e-01*S16+(-1.111095e-01)*S17+(-4.744182e-02)*S18+(-1.208638e-01)*S19'
.param V6_part3='V6_part2+1.814210e-01*S20+(-5.566582e-02)*S21+(-1.316751e-01)*S22+2.369172e-01*S23+(-1.108639e-01)*S24+(-1.685893e-01)*S25+(-3.214993e-01)*S26+8.615794e-02*S27+1.460738e-01*S28+2.063744e-01*S29'
.param V6_part4='V6_part3+(-1.107837e-01)*S30+(-1.865126e-01)*S31+(-1.331928e+00)*S32+8.865362e-02*S33+(-2.920246e-01)*S34+(-3.646315e-01)*S35+(-5.748482e-02)*S36+(-2.295430e-01)*S37+(-6.769526e-01)*S38+1.652510e-01*S39'
.param V6='V6_part4+1.350984e-01*S40+(-1.670347e+00)*S41'
.param V7_part1='1.177837e+00*S0+1.500517e+00*S1+1.206774e+00*S2+1.396366e+00*S3+1.503262e+00*S4+7.683736e-01*S5+8.130756e-01*S6+1.299806e+00*S7+9.784926e-01*S8+9.152801e-01*S9'
.param V7_part2='V7_part1+2.163132e+00*S10+2.420000e+00*S11+3.128094e+00*S12+1.801319e+00*S13+1.931912e+00*S14+1.692363e+00*S15+1.745893e+00*S16+1.900407e+00*S17+3.822121e+00*S18+4.258233e+00*S19'
.param V7_part3='V7_part2+4.090153e+00*S20+2.960161e+00*S21+3.302354e+00*S22+3.145160e+00*S23+5.642279e+00*S24+6.021139e+00*S25+6.552591e+00*S26+3.919923e+00*S27+4.360751e+00*S28+4.634215e+00*S29'
.param V7_part4='V7_part3+7.508414e+00*S30+8.023023e+00*S31+1.050508e+01*S32+5.551362e+00*S33+6.992797e+00*S34+7.348933e+00*S35+9.519923e+00*S36+1.034105e+01*S37+1.156421e+01*S38+7.410988e+00*S39'
.param V7='V7_part4+8.248991e+00*S40+1.189972e+01*S41'
.param V8_part1='(-4.715267e-02)*S0+1.982683e-02*S1+(-6.975446e-02)*S2+(-3.886189e-01)*S3+3.556227e-02*S4+(-2.627607e-02)*S5+(-9.510023e-02)*S6+1.881319e-02*S7+(-1.152053e-01)*S8+(-1.652407e-02)*S9'
.param V8_part2='V8_part1+(-2.334803e-02)*S10+(-3.519434e-01)*S11+(-1.721717e-01)*S12+1.018985e-01*S13+(-4.721076e-02)*S14+9.118813e-02*S15+(-4.820438e-01)*S16+2.715558e-02*S17+5.262696e-01*S18+2.318731e-01*S19'
.param V8_part3='V8_part2+(-9.310698e-01)*S20+2.982757e-01*S21+6.836660e-02*S22+(-9.768660e-01)*S23+1.175408e+00*S24+4.270604e-01*S25+(-2.767179e-01)*S26+1.137967e-01*S27+(-4.126207e-01)*S28+(-1.016600e+00)*S29'
.param V8_part4='V8_part3+1.897734e+00*S30+8.511666e-01*S31+1.446960e+00*S32+4.400144e-01*S33+9.004568e-01*S34+(-3.574909e-01)*S35+2.298670e+00*S36+1.635055e+00*S37+6.863992e-01*S38+8.264228e-01*S39'
.param V8='V8_part4+4.014904e-01*S40+1.749984e+00*S41'
.param V9_part1='(-1.717418e+00)*S0+(-2.017413e+00)*S1+(-5.905404e-01)*S2+(-4.063957e+00)*S3+(-9.510243e-01)*S4+(-4.038184e+00)*S5+(-3.287736e+00)*S6+(-4.523870e-01)*S7+1.540071e-01*S8+(-1.298732e+00)*S9'
.param V9_part2='V9_part1+(-2.937191e+00)*S10+(-4.084889e+00)*S11+(-1.390861e+00)*S12+(-9.819029e-01)*S13+(-1.172294e+00)*S14+5.093348e+00*S15+(-8.495621e+00)*S16+(-4.884634e-01)*S17+(-1.907840e+00)*S18+(-1.760308e+00)*S19'
.param V9_part3='V9_part2+(-1.796663e+01)*S20+(-1.146444e+00)*S21+(-2.150855e+00)*S22+(-1.481382e+01)*S23+(-4.595518e-01)*S24+(-2.673887e-01)*S25+(-3.381815e-01)*S26+(-3.005108e+00)*S27+(-7.010928e+00)*S28+(-1.403414e+01)*S29'
.param V9_part4='V9_part3+5.786383e-01*S30+1.361688e+00*S31+(-4.672337e+00)*S32+(-4.517269e+00)*S33+(-2.145476e+00)*S34+1.319207e-01*S35+7.803240e+00*S36+(-6.020467e+00)*S37+(-2.196372e+00)*S38+(-4.628485e+00)*S39'
.param V9='V9_part4+1.896747e+03*S40+(-4.422523e+00)*S41'
.param V10_part1='8.694189e+00*S0+1.054768e+00*S1+2.539367e+00*S2+6.430218e+00*S3+(-7.231204e-02)*S4+2.121441e+00*S5+9.049649e+00*S6+1.497272e+00*S7+(-3.678985e+00)*S8+7.425204e-01*S9'
.param V10_part2='V10_part1+1.627143e+01*S10+1.270084e+01*S11+(-1.049018e+00)*S12+2.669643e+00*S13+(-1.003506e-01)*S14+(-1.275543e+01)*S15+1.389369e+01*S16+(-3.236992e-01)*S17+(-1.866835e+00)*S18+(-3.451867e+00)*S19'
.param V10_part3='V10_part2+3.035694e+01*S20+(-7.256854e-01)*S21+(-1.713608e+00)*S22+2.473070e+01*S23+2.080585e+00*S24+(-9.190723e+00)*S25+(-5.324384e+00)*S26+2.141080e+01*S27+2.276356e+01*S28+2.417187e+01*S29'
.param V10_part4='V10_part3+9.945069e-01*S30+(-1.447105e+01)*S31+6.948329e+00*S32+3.505252e+01*S33+8.888173e-01*S34+(-7.889358e+00)*S35+(-2.700995e+01)*S36+(-1.125594e+01)*S37+7.986244e-01*S38+4.138775e+01*S39'
.param V10='V10_part4+1.000000e+04*S40+6.942141e+00*S41'
.param V11_part1='6.725952e-01*S0+4.125275e+00*S1+9.403433e-01*S2+1.588626e+00*S3+7.328362e+00*S4+4.159952e+00*S5+9.656041e-01*S6+7.295611e-01*S7+5.656524e+00*S8+6.587562e+00*S9'
.param V11_part2='V11_part1+9.319743e-01*S10+1.341250e+00*S11+6.291160e+00*S12+2.354042e+00*S13+5.079142e+00*S14+1.524896e+01*S15+1.991688e+00*S16+8.548745e+00*S17+6.830933e+00*S18+8.424714e+00*S19'
.param V11_part3='V11_part2+3.399750e+00*S20+4.465901e+00*S21+6.553591e+00*S22+2.734796e+00*S23+4.656967e+00*S24+1.161692e+01*S25+1.255108e+01*S26+1.162807e+00*S27+1.943000e+00*S28+3.135614e+00*S29'
.param V11_part4='V11_part3+5.516210e+00*S30+1.502682e+01*S31+5.243199e+00*S32+1.517829e+00*S33+7.052445e+00*S34+1.467726e+01*S35+1.195584e+01*S36+1.952713e+01*S37+1.179339e+01*S38+1.761307e+00*S39'
.param V11='V11_part4+(-1.248414e+03)*S40+5.309289e+00*S41'
.param V12_part1='(-2.660932e-02)*S0+8.198896e-02*S1+(-6.908388e-02)*S2+(-1.885490e-01)*S3+3.447068e-01*S4+3.892634e-01*S5+(-8.996558e-02)*S6+(-6.177082e-02)*S7+1.880000e-01*S8+1.335367e-01*S9'
.param V12_part2='V12_part1+(-9.684939e-02)*S10+(-1.993905e-01)*S11+1.530545e-01*S12+(-1.076647e-02)*S13+1.652676e-01*S14+1.222985e+00*S15+(-1.974633e-01)*S16+4.405405e-01*S17+2.336561e-01*S18+4.862099e-01*S19'
.param V12_part3='V12_part2+(-8.757832e-01)*S20+1.044843e-01*S21+1.253615e-01*S22+(-4.259687e-01)*S23+1.998825e-01*S24+(-1.911664e-02)*S25+(-5.579650e-01)*S26+(-1.490846e-01)*S27+(-3.797705e-01)*S28+(-6.268321e-01)*S29'
.param V12_part4='V12_part3+3.925336e-01*S30+(-5.489720e-01)*S31+(-2.018091e-01)*S32+(-2.318114e-01)*S33+5.570398e-01*S34+(-6.435148e-01)*S35+(-3.196445e-01)*S36+(-7.797165e-01)*S37+(-5.737704e-01)*S38+(-2.515311e-01)*S39'
.param V12='V12_part4+2.075174e+00*S40+(-4.815890e-02)*S41'
.param V13_part1='2.667890e+00*S0+2.628690e+00*S1+2.661218e+00*S2+3.320718e+00*S3+2.479056e+00*S4+1.236309e+00*S5+1.905595e+00*S6+1.595152e+00*S7+1.600104e+00*S8+1.661757e+00*S9'
.param V13_part2='V13_part1+5.020778e+00*S10+5.521585e+00*S11+5.246023e+00*S12+3.159285e+00*S13+3.408502e+00*S14+2.472141e+00*S15+4.273476e+00*S16+3.170123e+00*S17+6.780892e+00*S18+7.417044e+00*S19'
.param V13_part3='V13_part2+9.981425e+00*S20+5.207884e+00*S21+5.697314e+00*S22+7.557322e+00*S23+9.840692e+00*S24+1.056979e+01*S25+1.192782e+01*S26+8.838797e+00*S27+9.946925e+00*S28+1.078287e+01*S29'
.param V13_part4='V13_part3+1.312917e+01*S30+1.468746e+01*S31+1.633163e+01*S32+1.257148e+01*S33+1.199184e+01*S34+1.359381e+01*S35+1.719805e+01*S36+1.868559e+01*S37+2.075702e+01*S38+1.651392e+01*S39'
.param V13='V13_part4+1.165652e+01*S40+1.793006e+01*S41'
.param V14_part1='1.792446e-01*S0+(-2.797906e-01)*S1+1.721547e-01*S2+(-3.132773e-01)*S3+(-3.037243e-01)*S4+(-2.790292e-01)*S5+(-3.639027e-02)*S6+2.113766e-02*S7+(-4.538105e-01)*S8+(-2.150934e-01)*S9'
.param V14_part2='V14_part1+5.409948e-01*S10+1.041204e-01*S11+(-1.239043e+00)*S12+(-6.050136e-02)*S13+(-5.145312e-01)*S14+(-5.156739e-01)*S15+(-3.644340e-01)*S16+(-4.250734e-01)*S17+1.199534e-01*S18+(-9.813550e-01)*S19'
.param V14_part3='V14_part2+(-7.440244e-02)*S20+(-7.488139e-02)*S21+(-5.811711e-01)*S22+(-5.227632e-01)*S23+7.747861e-01*S24+6.176280e-02*S25+(-1.305903e+00)*S26+1.287240e+00*S27+6.805945e-01*S28+(-5.608583e-01)*S29'
.param V14_part4='V14_part3+1.547436e+00*S30+8.415287e-01*S31+(-1.298275e+00)*S32+2.569185e+00*S33+(-7.736323e-01)*S34+(-1.858228e+00)*S35+3.400983e+00*S36+2.273860e+00*S37+(-9.743534e-01)*S38+4.116880e+00*S39'
.param V14='V14_part4+3.591168e+00*S40+(-1.554375e+00)*S41'
.param V15_part1='(-6.987656e-02)*S0+1.246145e-01*S1+1.497354e-02*S2+3.197761e-01*S3+(-8.121122e-03)*S4+(-2.309045e-01)*S5+9.810540e-01*S6+1.249692e-01*S7+(-6.676595e-01)*S8+4.804826e-01*S9'
.param V15_part2='V15_part1+(-1.590232e-02)*S10+(-1.553526e-02)*S11+(-2.874190e-01)*S12+5.383757e-01*S13+(-2.529597e-02)*S14+(-4.491553e-01)*S15+(-5.923750e-01)*S16+(-6.665634e-02)*S17+(-1.007932e-01)*S18+(-4.201404e-01)*S19'
.param V15_part3='V15_part2+3.061282e-02*S20+(-2.041420e-01)*S21+(-4.660615e-01)*S22+(-4.069138e-01)*S23+1.229879e-01*S24+(-2.794097e+00)*S25+1.000000e+04*S26+(-5.501221e-02)*S27+(-2.883123e-01)*S28+(-1.994681e+00)*S29'
.param V15_part4='V15_part3+(-1.021942e-01)*S30+7.028479e+00*S31+(-3.127637e-01)*S32+(-5.564608e-03)*S33+(-9.103866e-01)*S34+1.544111e+00*S35+8.439489e+03*S36+1.762965e+02*S37+3.687834e+03*S38+(-9.304354e-02)*S39'
.param V15='V15_part4+2.779389e+00*S40+(-4.190920e-01)*S41'
.param V16_part1='3.309467e+00*S0+2.919271e+00*S1+6.203802e-01*S2+7.344895e-01*S3+9.416089e-01*S4+3.136172e+00*S5+1.587015e+00*S6+9.774167e-02*S7+2.371347e+00*S8+2.684916e-01*S9'
.param V16_part2='V16_part1+4.050896e+00*S10+2.323685e+00*S11+2.728838e+00*S12+3.015499e+00*S13+1.668837e+00*S14+1.151923e+00*S15+2.106691e+00*S16+1.013106e+00*S17+4.226440e+00*S18+3.027336e+00*S19'
.param V16_part3='V16_part2+1.907629e+00*S20+5.749119e+00*S21+4.355630e+00*S22+1.619885e+00*S23+5.033858e+00*S24+1.251476e+01*S25+1.000000e+04*S26+5.450383e+00*S27+3.058713e+00*S28+5.176178e+00*S29'
.param V16_part4='V16_part3+5.935325e+00*S30+6.988521e+03*S31+3.226272e+00*S32+5.962892e+00*S33+4.247930e+00*S34+2.667994e+02*S35+1.000000e+04*S36+5.318094e+03*S37+5.411062e+03*S38+5.933919e+00*S39'
.param V16='V16_part4+(-1.121310e-01)*S40+2.826829e+00*S41'
.param V17_part1='1.977424e-02*S0+(-4.463844e-01)*S1+(-1.872871e-02)*S2+(-1.926739e-01)*S3+8.381555e-02*S4+7.854339e-01*S5+(-2.961904e-01)*S6+(-2.295837e-01)*S7+2.534870e-01*S8+(-1.421364e-01)*S9'
.param V17_part2='V17_part1+6.596971e-02*S10+4.625138e-01*S11+1.629313e-01*S12+1.457026e-01*S13+2.684311e-01*S14+1.491675e-01*S15+2.800601e-01*S16+6.478704e-02*S17+3.478841e-01*S18+8.396566e-01*S19'
.param V17_part3='V17_part2+5.688145e-01*S20+1.249388e-01*S21+5.569618e-01*S22+7.257082e-01*S23+6.015313e-01*S24+3.395775e+00*S25+1.000000e+04*S26+(-6.208479e-02)*S27+1.032885e+00*S28+9.478172e-01*S29'
.param V17_part4='V17_part3+8.315672e-01*S30+4.016693e+01*S31+1.843211e+00*S32+5.226954e-01*S33+1.965469e+00*S34+4.674854e+00*S35+9.778232e+03*S36+8.270737e+01*S37+9.512410e+03*S38+1.198781e+00*S39'
.param V17='V17_part4+(-7.226616e+00)*S40+2.501541e+00*S41'
.param V18_part1='(-5.887770e-01)*S0+1.372473e-01*S1+(-1.843420e+00)*S2+(-1.537212e+00)*S3+(-5.424415e-01)*S4+(-1.770101e+00)*S5+(-2.280052e-01)*S6+(-1.756822e+00)*S7+(-1.424440e-02)*S8+1.636170e-01*S9'
.param V18_part2='V18_part1+(-4.917644e-01)*S10+(-1.100149e+00)*S11+7.493194e-02*S12+(-4.151920e-01)*S13+(-1.892340e+00)*S14+(-1.020647e+00)*S15+(-1.636209e+00)*S16+(-6.841548e-01)*S17+(-4.468054e-01)*S18+(-1.353818e+00)*S19'
.param V18_part3='V18_part2+(-8.270951e-01)*S20+(-3.215343e-01)*S21+(-1.561817e-01)*S22+(-2.007888e+00)*S23+1.697946e-01*S24+(-3.823415e-01)*S25+(-1.613210e+00)*S26+(-4.726178e-01)*S27+(-7.994281e-01)*S28+(-1.187359e+00)*S29'
.param V18_part4='V18_part3+1.362573e-01*S30+(-1.146605e+00)*S31+(-9.839759e-01)*S32+(-9.678536e-02)*S33+(-7.137705e-01)*S34+(-1.248213e+00)*S35+(-6.878179e-01)*S36+(-1.761714e+00)*S37+(-1.428053e+00)*S38+(-2.823769e-01)*S39'
.param V18='V18_part4+(-1.159097e+00)*S40+5.010843e-01*S41'
.param V19_part1='4.146024e+00*S0+5.924397e-01*S1+5.171319e+00*S2+4.481811e+00*S3+1.094357e+00*S4+8.896627e+00*S5+8.591735e-01*S6+5.506999e+00*S7+5.428364e-01*S8+6.232786e-01*S9'
.param V19_part2='V19_part1+4.428165e+00*S10+5.444593e+00*S11+1.199455e+00*S12+4.143428e+00*S13+5.554711e+00*S14+2.088280e+00*S15+5.524961e+00*S16+9.368550e-01*S17+4.680333e+00*S18+5.688731e+00*S19'
.param V19_part3='V19_part2+3.070352e+00*S20+4.944452e+00*S21+1.872321e+00*S22+5.584036e+00*S23+4.966507e-01*S24+1.944913e+00*S25+6.082092e+00*S26+4.833544e+00*S27+3.286908e+00*S28+4.387951e+00*S29'
.param V19_part4='V19_part3+1.287282e+00*S30+6.259055e+00*S31+5.162123e+00*S32+1.623817e+00*S33+2.532314e+00*S34+3.226537e+00*S35+6.943132e+00*S36+8.074998e+00*S37+3.445796e+00*S38+2.266470e+00*S39'
.param V19='V19_part4+6.143244e+00*S40+2.868959e+00*S41'
.param V20_part1='3.747349e+00*S0+3.118365e+00*S1+5.728398e+00*S2+5.718643e+00*S3+7.333462e+00*S4+5.158837e+00*S5+3.039084e+00*S6+3.557307e+00*S7+5.263491e+00*S8+5.018063e+00*S9'
.param V20_part2='V20_part1+5.019531e+00*S10+6.346003e+00*S11+8.087696e+00*S12+3.815832e+00*S13+5.779771e+00*S14+5.802684e+00*S15+6.080722e+00*S16+5.316421e+00*S17+7.161827e+00*S18+8.529672e+00*S19'
.param V20_part3='V20_part2+8.425571e+00*S20+5.305941e+00*S21+3.903387e+00*S22+9.228752e+00*S23+5.848963e+00*S24+5.115106e+00*S25+7.358388e+00*S26+7.556930e+00*S27+7.202864e+00*S28+6.922260e+00*S29'
.param V20_part4='V20_part3+8.466449e+00*S30+4.804728e+00*S31+1.053569e+01*S32+7.307389e+00*S33+8.857286e+00*S34+7.617362e+00*S35+9.653698e+00*S36+1.560539e+01*S37+1.037075e+01*S38+8.616758e+00*S39'
.param V20='V20_part4+9.555857e+00*S40+1.083756e+01*S41'
.param V21_part1='6.915189e+00*S0+7.331395e+00*S1+9.110092e+00*S2+4.492393e+00*S3+(-4.234110e+00)*S4+2.244568e+01*S5+4.095575e+00*S6+4.886069e+00*S7+6.078937e+00*S8+(-5.288506e+00)*S9'
.param V21_part2='V21_part1+6.955392e+00*S10+9.937072e+00*S11+5.230892e+00*S12+1.502986e+01*S13+(-2.349116e+01)*S14+6.825789e+00*S15+2.968042e+03*S16+6.406017e+00*S17+6.014438e+00*S18+8.187932e+00*S19'
.param V21_part3='V21_part2+2.369511e+00*S20+1.249079e+01*S21+2.198440e+00*S22+5.525758e+00*S23+1.030683e+01*S24+0.000000e+00*S25+2.181737e+00*S26+6.277607e+00*S27+2.589256e+00*S28+(-9.792126e+01)*S29'
.param V21_part4='V21_part3+6.322859e+00*S30+2.636722e+00*S31+2.414287e+00*S32+6.722077e+00*S33+7.329921e+00*S34+3.415813e+01*S35+(-1.988893e+03)*S36+(-2.404849e+02)*S37+0.000000e+00*S38+8.669432e+00*S39'
.param V21='V21_part4+2.558385e+00*S40+1.571993e+00*S41'
.param V22_part1='(-3.483333e+00)*S0+1.898328e+00*S1+(-1.312035e+00)*S2+(-1.384794e+00)*S3+7.314464e+00*S4+(-2.547182e+00)*S5+(-2.241936e+00)*S6+(-1.442399e+00)*S7+(-2.970398e+00)*S8+1.152042e+01*S9'
.param V22_part2='V22_part1+(-3.678434e+00)*S10+(-3.779810e+00)*S11+(-2.217342e+00)*S12+(-2.104052e+00)*S13+3.025339e+01*S14+(-2.642014e+00)*S15+8.859840e+03*S16+(-1.963032e+00)*S17+(-5.160090e+00)*S18+2.922120e-01*S19'
.param V22_part3='V22_part2+(-1.117392e+00)*S20+(-1.307845e+01)*S21+(-1.852110e+00)*S22+(-6.255228e-02)*S23+(-8.882255e-01)*S24+0.000000e+00*S25+(-1.062622e+00)*S26+(-6.628970e+00)*S27+(-7.875882e-01)*S28+5.656420e+00*S29'
.param V22_part4='V22_part3+(-1.559899e+00)*S30+(-1.249561e+00)*S31+(-1.426571e+00)*S32+(-1.679098e+00)*S33+(-1.794376e+00)*S34+9.246203e-01*S35+5.867440e-01*S36+(-1.555047e+01)*S37+0.000000e+00*S38+(-8.044205e-01)*S39'
.param V22='V22_part4+(-1.556490e+00)*S40+(-9.646265e-01)*S41'
.param V23_part1='(-4.336605e+00)*S0+(-7.774619e+00)*S1+(-4.806445e+00)*S2+(-1.837791e+00)*S3+5.768229e+00*S4+(-1.694428e+01)*S5+(-1.651647e+00)*S6+(-1.790837e+00)*S7+(-2.748443e+00)*S8+4.231575e+00*S9'
.param V23_part2='V23_part1+(-6.212400e+00)*S10+(-9.460647e+00)*S11+(-3.238888e+00)*S12+(-1.312741e+01)*S13+5.813071e+01*S14+(-2.518710e+00)*S15+(-1.000000e+04)*S16+(-1.549532e+00)*S17+(-3.823614e+00)*S18+(-9.965619e+00)*S19'
.param V23_part3='V23_part2+3.611024e-01*S20+(-7.639561e+00)*S21+1.821928e+00*S22+(-6.197374e+00)*S23+(-1.303649e+01)*S24+0.000000e+00*S25+(-4.888095e-01)*S26+(-2.904555e+00)*S27+9.255488e-01*S28+4.951690e+02*S29'
.param V23_part4='V23_part3+(-6.240775e+00)*S30+(-2.093814e+00)*S31+7.408199e-01*S32+(-6.925575e+00)*S33+(-7.662316e+00)*S34+(-6.514999e+01)*S35+1.000000e+04*S36+1.426854e+03*S37+0.000000e+00*S38+(-1.217017e+01)*S39'
.param V23='V23_part4+6.816665e-01*S40+2.292312e+01*S41'
.param V24_part1='6.770968e+00*S0+1.034119e+01*S1+0.000000e+00*S2+1.613178e+01*S3+7.894874e+01*S4+(-2.704753e+00)*S5+0.000000e+00*S6+1.278212e+01*S7+3.314696e+01*S8+7.514605e+01*S9'
.param V24_part2='V24_part1+4.796571e+00*S10+3.425297e+01*S11+(-1.468045e+01)*S12+1.877269e+01*S13+2.325898e+01*S14+8.959182e+00*S15+(-7.216639e+00)*S16+1.325118e+01*S17+1.263457e+01*S18+0.000000e+00*S19'
.param V24_part3='V24_part2+2.726242e+01*S20+2.390064e+00*S21+2.207319e+01*S22+(-3.141448e+01)*S23+2.281008e+00*S24+3.958468e+02*S25+1.039196e+01*S26+4.448053e+00*S27+2.784208e+01*S28+4.494289e+01*S29'
.param V24_part4='V24_part3+1.197937e+01*S30+(-2.511617e+02)*S31+(-1.828402e+01)*S32+2.283975e+00*S33+(-1.319434e+01)*S34+(-1.907199e+02)*S35+4.827614e+00*S36+(-2.003825e+01)*S37+0.000000e+00*S38+(-2.157970e+01)*S39'
.param V24='V24_part4+(-2.049606e+00)*S40+(-1.090408e+02)*S41'
.param V25_part1='6.209722e+01*S0+1.710260e+01*S1+0.000000e+00*S2+5.797455e+01*S3+(-5.425656e+01)*S4+3.587205e+01*S5+0.000000e+00*S6+4.264043e+01*S7+1.793355e+01*S8+(-6.142632e+01)*S9'
.param V25_part2='V25_part1+8.256113e+01*S10+4.253037e+01*S11+2.386011e+01*S12+7.205535e+01*S13+4.815801e+01*S14+3.282120e+01*S15+9.046279e+01*S16+1.561034e+01*S17+1.186976e+02*S18+0.000000e+00*S19'
.param V25_part3='V25_part2+9.847829e+01*S20+1.106334e+02*S21+4.311109e+01*S22+(-4.369783e+00)*S23+6.167934e+01*S24+1.554355e+02*S25+8.157809e+01*S26+1.322613e+02*S27+5.346422e+01*S28+3.794378e+01*S29'
.param V25_part4='V25_part3+7.888713e+01*S30+2.192205e+02*S31+4.998983e+01*S32+1.062231e+02*S33+1.137464e+02*S34+1.716115e+02*S35+8.386562e+01*S36+8.121020e+01*S37+0.000000e+00*S38+1.521192e+02*S39'
.param V25='V25_part4+9.655525e+01*S40+1.804284e+02*S41'
.param V26_part1='2.417700e+01*S0+2.385171e+01*S1+0.000000e+00*S2+1.134307e+00*S3+1.733718e+01*S4+2.205910e+01*S5+0.000000e+00*S6+1.885839e+01*S7+1.237649e+01*S8+1.842793e+01*S9'
.param V26_part2='V26_part1+3.575944e+01*S10+4.668927e+00*S11+3.860090e+01*S12+1.371709e+01*S13+1.036178e+01*S14+2.569648e+01*S15+2.108200e+01*S16+2.456511e+01*S17+1.800807e+01*S18+0.000000e+00*S19'
.param V26_part3='V26_part2+6.409454e+00*S20+3.957173e+01*S21+(-2.045836e+01)*S22+2.071010e+02*S23+3.763846e+01*S24+(-2.857685e+02)*S25+1.889456e+02*S26+2.161054e+01*S27+4.985611e+00*S28+1.219230e+02*S29'
.param V26_part4='V26_part3+3.625185e+01*S30+1.258563e+03*S31+2.924938e+02*S32+3.618645e+01*S33+3.571393e+01*S34+1.060985e+03*S35+1.776725e+02*S36+9.927335e+01*S37+0.000000e+00*S38+1.454710e+02*S39'
.param V26='V26_part4+1.722056e+02*S40+3.247916e+02*S41'
.param V27_part1='(-5.669178e-01)*S0+(-1.172038e-01)*S1+(-1.953953e+00)*S2+(-1.836642e+00)*S3+(-5.620303e-01)*S4+(-1.633308e+00)*S5+(-3.993366e-01)*S6+(-1.998826e+00)*S7+(-4.672230e-01)*S8+1.326299e-01*S9'
.param V27_part2='V27_part1+(-5.094759e-01)*S10+(-1.433521e+00)*S11+(-8.730346e-02)*S12+(-5.554674e-01)*S13+(-2.113030e+00)*S14+(-1.299838e+00)*S15+(-1.892630e+00)*S16+(-8.769771e-01)*S17+(-7.448242e-01)*S18+(-1.651374e+00)*S19'
.param V27_part3='V27_part2+(-1.009859e+00)*S20+(-3.133706e-01)*S21+(-2.833434e-01)*S22+(-2.085954e+00)*S23+4.230250e-02*S24+(-5.268507e-01)*S25+(-1.734025e+00)*S26+(-8.274065e-01)*S27+(-1.045979e+00)*S28+(-1.424241e+00)*S29'
.param V27_part4='V27_part3+(-1.445632e-01)*S30+(-1.389897e+00)*S31+(-1.026876e+00)*S32+(-2.895915e-01)*S33+(-9.836223e-01)*S34+(-1.792708e+00)*S35+(-4.728656e-01)*S36+(-1.421940e+00)*S37+(-1.789996e+00)*S38+(-5.703434e-01)*S39'
.param V27='V27_part4+(-1.507365e+00)*S40+3.616808e-01*S41'
.param V28_part1='4.115322e+00*S0+1.274062e+00*S1+5.077989e+00*S2+4.593521e+00*S3+9.607968e-01*S4+8.096580e+00*S5+6.888639e-01*S6+5.873685e+00*S7+9.056959e-01*S8+5.504149e-01*S9'
.param V28_part2='V28_part1+4.146317e+00*S10+5.527164e+00*S11+1.389632e+00*S12+3.913677e+00*S13+5.651624e+00*S14+2.046285e+00*S15+5.633764e+00*S16+1.046053e+00*S17+4.733265e+00*S18+5.844260e+00*S19'
.param V28_part3='V28_part2+3.037742e+00*S20+4.984088e+00*S21+1.814966e+00*S22+5.301949e+00*S23+4.862436e-02*S24+2.056178e+00*S25+6.096137e+00*S26+6.141480e+00*S27+3.346519e+00*S28+4.628941e+00*S29'
.param V28_part4='V28_part3+1.108043e+00*S30+6.190611e+00*S31+5.080918e+00*S32+1.204686e+00*S33+2.331390e+00*S34+3.561676e+00*S35+5.804731e+00*S36+6.561947e+00*S37+3.676765e+00*S38+1.527308e+00*S39'
.param V28='V28_part4+5.898771e+00*S40+2.859922e+00*S41'
.param V29_part1='3.745485e+00*S0+3.121798e+00*S1+6.005981e+00*S2+6.506750e+00*S3+7.580853e+00*S4+4.932745e+00*S5+3.625157e+00*S6+3.754990e+00*S7+5.539637e+00*S8+5.264200e+00*S9'