* 
*  No part of this file can be released without the consent of SMIC.
*
******************************************************************************************
*         SMIC 0.18um Mixed Signal 1P6M 1.8V/3.3V SPICE model (for HSPICE only)          *
******************************************************************************************
*
*  Release version    : 1.11
*
*  Release date       : 04/24/2015
*
*  Simulation tool    : Synopsys Star-HSPICE version C-2010.03
* 
*  the valid temperature range is from -40c to 125c
* model type         :
*   mosfet           : hspice level 54(bsim4)
* 
* simple model name         :
*        *------------------------------------------------------------*
*        |     mosfet type    |       1.8v        |        3.3v       |
*        |============================================================|
*        |      nmos          | n18_ckt_rf        | n33_ckt_rf        |
*        *------------------------------------------------------------|
*        |      pmos          | p18_ckt_rf        | p33_ckt_rf        |
*        *------------------------------------------------------------|
*        |      nmos          | dnw18_ckt_rf      | dnw33_ckt_rf      |
*        *------------------------------------------------------------*
*        |      pmos          | p18_5t_ckt_rf     | p33_5t_ckt_rf     |
*        *------------------------------------------------------------*
*        |      nmos          | dnw18_6t_ckt_rf   |   dnw33_6t_ckt_rf |
*        *------------------------------------------------------------*
*
*    valid temperature range is from -40c to 125c
*
*
***********************************************************************************                                                                            
*                              1.8V CORE NMOS MODEL                               *                                                                            
***********************************************************************************                                                                            
.model n18_ckt_r nmos                                                                                                                                             
*                                                                                                                                                              
* GENERAL PARAMETERS                                                                                                                                           
*                                                                                                                                                              
***************************************************************************                                                                                    
*             Model Selector Parameter                                                                                                                         
***************************************************************************                                                                                    
+level        = 54                version      = 4.5               binunit      = 2                                                                            
+paramchk     = 1                 mobmod       = 0                 capmod       = 2                                                                            
+rgatemod     = 3                 geomod       = 0                 rgeomod      = 1                                                                            
+diomod       = 2                 rdsmod       = 0                 rbodymod     = 0                                                                            
+fnoimod      = 1                 tnoimod      = 1                 tempmod      = 0                                                                            
+permod       = 1                 acnqsmod     = 0                 trnqsmod     = 0                                                                            
+igcmod       = 1                 igbmod       = 1                 wpemod       = 0                                                                            
                                                                                                                                                               
***************************************************************************                                                                                    
*             Geometry Range Parameter                                                                                                                         
***************************************************************************                                                                                    
+lmin         = 1.5e-007          lmax         = 0.0001            wmin         = 1.9e-007          
+wmax         = 0.0001
***************************************************************************                                                                                    
*             Process Parameter                                                                                                                                
***************************************************************************                                                                                    
+epsrox       = 3.9                                                                                                                                            
+toxe         = '4.19e-009+dtoxe_n18_rf_mismatch'                                                                                                                        
+dtox         = 3.36e-010         xj           = 1.6e-007          ndep         = 1.4563e+017                                                                  
+ngate        = 3e+020            nsd          = 1e+020            rsh          = 7.6
***************************************************************************                                                                                    
*             dW and dL Parameter                                                                                                                              
***************************************************************************                                                                                    
+wl           = 0                 wln          = 1                 ww           = -2.7e-015         
+wwn          = 1                 wwl          = -8e-022           ll           = -7e-016           
+lln          = 1                 lw           = -3.5e-015         lwn          = 1                 
+lwl          = 0                 llc          = 0                 lwc          = 0                 
+lwlc         = 0                 wlc          = 0                 wwc          = 0                 
+wwlc         = 0                 wint         = 1.6229e-008       lint         = 9e-009 
***************************************************************************                                                                                    
*             Layout-Dependent Parasitics Model Parameter                                                                                                      
***************************************************************************                                                                                    
+dmcg         = 2.7e-007          dmci         = 2.7e-007         dwj          = 0                                                                            
+xgw          =0.31e-6            xgl          =-1.6e-008          ngcon        =2       
+xl           = '-1.6e-008+dxl_n18_rf'                                                                                                                         
+xw           = '4.2e-008+dxw_n18_rf'
***************************************************************************                                                                                    
*             BASIC: Vth Related  Parameter                                                                                                                    
***************************************************************************                                                                                          
+vth0         = '0.4185+dvth0_n18_rf_mismatch'                                                             
+lvth0        = '-1.495e-008+dlvth0_n18_rf'                                                       
+wvth0        = '-1.16e-008+dwvth0_n18_rf'                                                        
+pvth0        = '1.8e-015+dpvth0_n18_rf'                                                          
+vfb          = -1                phin         = 0.077042          k1           = 0.57819           
+wk1          = -1.7e-008         k2           = 0.0024336         lk2          = -1e-009           
+wk2          = 2e-009            pk2          = 1.4699e-015       k3           = 3                 
+k3b          = 3.76              w0           = 1.5e-006          lpe0         = 1.8e-007          
+llpe0        = 1.1e-016          lpeb         = 0                 vbm          = -3                
+dvt0         = 1.14              ldvt0        = -6.124e-008       dvt1         = 0.22              
+ldvt1        = 2e-009            dvt2         = -0.02944          dvtp0        = 0                 
+dvtp1        = 0                 dvt0w        = 0                 dvt1w        = 5300000           
+dvt2w        = -0.032            dwg          = 0                 dwb          = 0
***************************************************************************                                                                                    
*             BASIC: Mobility Related Parameter                                                                                                                
***************************************************************************                                                                                    
+u0           = '0.028012+du0_n18_rf_mismatch'                                                            
+lu0          = '5.4e-010+dlu0_n18_rf'                                                           
+wu0          = '-4.51e-010+dwu0_n18_rf'                                                         
+pu0          = '4.6575e-016+dpu0_n18_rf'                                                        
+ua           = -1.8869e-009      lua          = -3e-017           wua          = 7.6568e-017       
+pua          = 6.4915e-024       ub           = 3.515e-018        lub          = 2.92e-026         
+wub          = -1.274e-025       pub          = -7.86e-033        uc           = 1.4426e-010       
+luc          = 2.1688e-018       wuc          = -1.2768e-017      puc          = 8e-025            
+ud           = 0                 eu           = 1.67              
+vsat         = '70000+dvsat_n18_rf_mismatch'                                                             
+lvsat        = '0.0006+dlvsat_n18_rf'                                                           
+pvsat        = '5.2036e-010+dpvsat_n18_rf'                                                      
+a0           = 1.6               la0          = -4e-007           pa0          = 5e-014            
+ags          = 0.56              lags         = 1.5e-007          wags         = -3e-008           
+pags         = 6e-014            b0           = 0                 b1           = 0                 
+keta         = -0.045548         lketa        = -7.6454e-009      wketa        = 1.0136e-008       
+pketa        = -1e-015           a1           = 0                 a2           = 0.99                                                                         
***************************************************************************  
*             BASIC: Subthreshold Related Parameter                           
***************************************************************************    
+voff         = '-0.15+dvoff_n18_rf'                                                             
+pvoff        = -5e-016           voffl        = 0                 minv         = 0                 
+nfactor      = 1                 eta0         = 0.14              peta0        = -6e-016           
+etab         = -0.07             petab        = 3.6e-015          dsub         = 0.56              
+cit          = 0.00065           lcit         = 1.6e-010          pcit         = -1e-018           
+cdsc         = 0                 cdscb        = 0                 cdscd        = 0.0001
***************************************************************************                                                                                    
*             BASIC: Output Resistance Related Parameter                                                                                                       
***************************************************************************                                                                                    
+pclm         = 0.31747           ppclm        = 4e-015            pdiblc1      = 0.04              
+pdiblc2      = 0.002             pdiblcb      = 0                 drout        = 0.56              
+pscbe1       = 3.45e+008         pscbe2       = 1e-006            pvag         = 0                 
+delta        = 0.001             pdits        = 0                 pditsl       = 0                 
+pditsd       = 0                 lambda       = 0 
***************************************************************************                                                                                    
*             Asymmetric and Bias-Dependent                                                                                                                    
***************************************************************************                                                                                    
+rdsw         = 90                rdswmin      = 0                 rdw          = 47                
+rdwmin       = 0                 rsw          = 47                rswmin       = 0                 
+prwg         = 0                 prwb         = 0                 wr           = 1  
***************************************************************************                                                                                    
*             Impact Ionization Current Model Parameters                                                                                                       
***************************************************************************                                                                                    
+alpha0       = 0                 alpha1       = 4.1739            lalpha1      = 2e-007            
+walpha1      = 4.64e-008         palpha1      = 2.5e-014          beta0        = 15.901    
***************************************************************************                                                                                    
*             Gate Dielectric Tunneling Current                                                                                                                
***************************************************************************                                                                                    
+aigbacc      = 0.43              bigbacc      = 0.054             cigbacc      = 0.075             
+nigbacc      = 1                 aigbinv      = 0.0088021         bigbinv      = 0.000949          
+cigbinv      = 0.006             eigbinv      = 1.1               nigbinv      = 3                 
+aigc         = 0.015123          bigc         = 0.0017647         cigc         = 0.0702            
+dlcig        = 1e-012            aigsd        = 0.0038304         waigsd       = -2e-010           
+paigsd       = -5e-018           bigsd        = 0.00030435        cigsd        = 0.19301           
+nigc         = 1.288             poxedge      = 1                 pigcd        = 1                 
+ntox         = 1                 toxref       = 3e-009          
***************************************************************************                                                                                    
*             GIDL Effect Parameters                                                                                                                           
***************************************************************************                                                                                    
+agidl        = 8.5074e-007       wagidl       = 2e-013            bgidl        = 2.9037e+009       
+wbgidl       = -50               cgidl        = 0.1               egidl        = 0.1        
***************************************************************************                                                                                    
*             Flicker Noise Model Parameter                                                                                                                    
***************************************************************************                                                                                    
+noia         = 6.24173e+041      noib         = 1.42569e+022      noic         = 6.62e+008                                                                    
+em           = 54761.2           ef           = 0.98              lintnoi      = -2e-008                                                                      
+ntnoi        = 1 
***************************************************************************                                                                                    
*             High-Speed RF Model Parameters                                                                                                                   
***************************************************************************                                                                                    
+rnoia='-2.6579E-01*log(lr) - 3.3425E+00' tnoia='1.8380E+06*log(lr)+3.1801E+07' rnoib=0 tnoib=2e6                                                                     
***************************************************************************                                                                                    
*             Capacitance Parameter                                                                                                                            
***************************************************************************                                                                                    
+xpart        = 0                                                                                                                                              
+cgdo         = '1.8e-010+dcgdo_n18_rf'                                                                                                                        
+cgso         = '1.8e-010+dcgdo_n18_rf'                                                                                                                        
+cgbo         = 0                                                                                                                                              
+cgdl         = '9e-011*kcgdl+dcgdl_n18_rf'                                                                                                                          
+cgsl         = '9e-011*kcgdl+dcgdl_n18_rf'                                                                                                                          
+cf           = '(8.54e-011+dcf_n18_rf)'                                                                                                                         
+clc          = 0                 cle          = 0.6               dlc          = '2.8339e-008*kdlc'                                                                  
+dwc          = 0                 vfbcv        = -1                noff         = 1.6804                                                                       
+lnoff        = 1e-007            voffcv       = -0.020304         lvoffcv      = -2.088e-009                                                                  
+acde         = 0.384             moin         = 8                                                                                                       

*+dwc          = 0                 vfbcv        = -1                noff         = 1.6804                                                                     
*+lnoff        = 1e-007            voffcv       = -0.015        lvoffcv      = 0   
*+lnoff        = 1e-007            voffcv       = -0.02        lvoffcv      = 0                                                                
                                                             
*************************************************************************** 
*             Souce|Drain Junction Diode Model Parameter                     
***************************************************************************   
+ijthsrev     = 0.1               ijthsfwd     = 0.1               xjbvs        = 1                 
+bvs          = 11.5              jss          = 1.1508e-006       jsws         = 1.4205e-014       
+jswgs        = 1.134e-013        jtss         = 0                 jtsd         = 0                 
+jtssws       = 0                 jtsswd       = 0                 jtsswgs      = 2e-008            
+jtsswgd      = 6e-009            njts         = 20                njtssw       = 20                
+njtsswg      = 20                xtss         = 0.02              xtsd         = 0.02              
+xtssws       = 0.02              xtsswd       = 0.02              xtsswgs      = 0.02              
+xtsswgd      = 0.02              tnjts        = 0                 tnjtssw      = 0                 
+tnjtsswg     = 0                                                                                                                                               
+cjs          = '0'                                                                                                                        
+cjsws        = '0'                                                                                                                     
+cjswgs       = '0'                                                                                                                    
+mjs          = 0.34744           mjsws        = 0.19672           mjswgs       = 0.84898           
+pbs          = 0.70413           pbsws        = 0.58719           pbswgs       = 1.6255                                                                                                                                                               
***************************************************************************                                                                                    
*             Temperature coefficient                                                                                                                          
***************************************************************************                                                                                    
+tnom         = 25                ute          = -1.4012           lute         = 1.48e-008         
+kt1          = -0.24949          kt1l         = -2.9274e-009      kt2          = -0.05             
+wkt2         = 4e-009            ua1          = 1.76e-009         wua1         = -1.1e-016         
+pua1         = 1.625e-023        ub1          = -1.9392e-018      lub1         = -8.232e-026       
+wub1         = 1e-026            pub1         = -3.12e-033        uc1          = 1.124e-010        
+luc1         = -1.62e-017        puc1         = -3e-024           at           = 31820             
+pat          = -2.1e-010         prt          = 0                 njs          = 1.1294            
+xtis         = 3                 tpb          = 0.001             tpbsw        = 0.000868          
+tpbswg       = 0.0015811         tcj          = 0.00083836        tcjsw        = 0.0014935         
+tcjswg       = 0.0006583         tvoff        = 0                                                                                                               
***************************************************************************                                                                                    
*             Stress Effect Related Parameter                                                                                                                  
***************************************************************************                                                                                    
+saref        = 4.48e-006         sbref        = 4.48e-006         wlod         = 0                 
+ku0          = -4.5e-008         kvsat        = 1                 tku0         = 0                 
+lku0         = 7e-007            wku0         = 5e-007            pku0         = 7e-013            
+llodku0      = 1                 wlodku0      = 1                 kvth0        = 3.5e-009          
+lkvth0       = -6e-008           wkvth0       = 1e-007            pkvth0       = 2e-014            
+llodvth      = 1                 wlodvth      = 1                 stk2         = 0                 
+lodk2        = 1                 steta0       = 0                 lodeta0      = 1                                                                                                                                                                
***************************************************************************                                                                                    
*             Well Proximity Effect Model Parameters                                                                                                           
***************************************************************************                                                                                    
+web          = 0                 wec          = 0                 kvth0we      = 0                                                                            
+k2we         = 0                 ku0we        = 0                 scref        = 1e-006                                                                       
***rf***                                                                                                                                                       
+ XRCRG1  = 12              XRCRG2  = 1                                                                                                                      
+ RSHG    ='rshg_n18_rf'                                                                                                                                               
******************************************************
*********************************************************

***********************************************************************************
*                              1.8v core pmos model                               *
***********************************************************************************
.model p18_ckt_r pmos
***************************************************************************
*             Model Selector Parameter
***************************************************************************
+level        = 54                version      = 4.5               binunit      = 2                 
+paramchk     = 1                 mobmod       = 0                 capmod       = 2                 
+rgatemod     = 3                 geomod       = 0                 rgeomod      = 1                 
+diomod       = 2                 rdsmod       = 0                 rbodymod     = 0                 
+fnoimod      = 1                 tnoimod      = 1                 tempmod      = 0                 
+permod       = 1                 acnqsmod     = 0                 trnqsmod     = 0                 
+igcmod       = 1                 igbmod       = 1                 wpemod       = 0                 

***************************************************************************
*             Geometry Range Parameter
***************************************************************************
+lmin         = 1.5e-007          lmax         = 0.0001            wmin         = 1.9e-007          
+wmax         = 0.0001
***************************************************************************
*             Process Parameter
***************************************************************************
+epsrox       = 3.9               
+toxe         = '4.27e-009+dtoxe_p18_mismatch_rf'                                                
+dtox         = 4.49e-010         xj           = 1.6e-007          ndep         = 1.0196e+017       
+ngate        = 1.4e+020          nsd          = 1e+020            rsh          = 6.75              
***************************************************************************
*             dW and dL Parameter
***************************************************************************