// *Spectre Model Format
simulator lang=spectre  insensitive=yes
// **
model npn18a25 bjt type = npn
// **************************************************************
// *               general parameters
// **************************************************************
+tnom = 25 
// **************************************************************
// *               capacitance parameters
// **************************************************************
+cjc = 6.03e-014+dcjc_npn18a25 cje = 2.47e-014+dcje_npn18a25 fc = 0 mjc = 0.330 
+mje = 0.347 vjc = 0.676 vje = 0.704 
// **************************************************************
// *               noise parameters
// **************************************************************
// **************************************************************
// *               dc parameters
// **************************************************************
+is = 9.84e-018+dis_npn18a25+dis_npn18a25mis subs = 1 rb = 51.85+drb_npn18a25 re = 14.768+dre_npn18a25 
+irb = 0.002 rc = 7.92+drc_npn18a25 rbm = 1+drbm_npn18a25 bf = 20.839+dbf_npn18a25+dbf_npn18a25mis 
+nf = 1.0065+dnf_npn18a25 vaf = 37 ikf = 0.0099868+dikf_npn18a25 ise = 2.0814e-016 
+ne = 1.487 br = 0.527 nr = 1.006 var = 28.076 
+ikr = 0.0013 nkf = 0.455 isc = 9e-016 nc = 1.4 
// **************************************************************
// *               temperature parameters
// **************************************************************
+xtb = 0 xti = 3 eg = 1.16 ctc = 0.00083836 
+cte = 0.00090633 tlev = 0 tlevc = 1 tvjc = 0.001448 
+tvje = 0.00147 tne1 = 0.00025 tbf1 = 0.00585 tbr1 = 0.0011093 
+tikf1 = -0.00088 tbr2 = -4.216e-006 tikf2 = -1.94e-005 
// **************************************************************
// *               quasi
// **************************************************************
