// *Spectre Model Format
simulator lang=spectre  insensitive=yes
// **
model pnp33a4 bjt type = pnp
// **************************************************************
// *               general parameters
// **************************************************************
+tnom = 25 
// **************************************************************
// *               capacitance parameters
// **************************************************************
+cjc = 0.838e-014+dcjc_pnp33a4 cje = 4.176e-015+dcje_pnp33a4 fc = 0 mjc = 0.263 
+mje = 0.398 vjc = 0.416 vje = 0.821 
// **************************************************************
// *               noise parameters
// **************************************************************
// **************************************************************
// *               dc parameters
// **************************************************************
+is = 6.11e-019+dis_pnp33a4+dis_pnp33a4mis subs = 1 rb = 107.43+drb_pnp33a4 re = 1.8101+dre_pnp33a4 
+irb = 0.0015 rc = 12.115+drc_pnp33a4 rbm = 2+drbm_pnp33a4 bf = 2.8509+dbf_pnp33a4+dbf_pnp33a4mis 
+nf = 1+dnf_pnp33a4 vaf = 435.1 ikf = 0.00022698+dikf_pnp33a4 ise = 1.949e-017 
+ne = 1.47 br = 0.00094 nr = 0.998 var = 20.671 
+ikr = 0.00179 nkf = 0.39826 isc = 2e-017 nc = 1.5 
// **************************************************************
// *               temperature parameters
// **************************************************************
+xtb = 0 xti = 3 eg = 1.16 ctc = 0.00176 
+cte = 0.0009267 tlev = 0 tlevc = 1 tvjc = 0.00155 
+tvje = 0.00154 tise1 = 0 tnf1 = -3e-005 tbf1 = 0.00592 
+tbr1 = -0.0010143 tikf1 = -0.001 tbf2 = 0 tbr2 = 1.31e-005 
+tikf2 = -3e-006 
// **************************************************************
// *               quasi
// **************************************************************
