// * Spectre Format by MOCA
simulator lang=spectre  insensitive=yes
//  No part of this file can be released without the consent of SMIC.
//
//*****************************************************************************************
//      SMIC 0.18um Mixed Signal Enhanced 1.8V/3.3V SPICE Model  (for Spectre only)   *
//*****************************************************************************************
//
//  Release version    : 1.11
//
//  Release date       : 10/14/2016
//
//  Simulation tool    : Cadence Spectre V10.1.1
// * simple model name         :
// *        *----------------------------------------------------------------*
// *        |     mosfet type    |   1.8v   |     3.3v  | 1.8v mvt | 3.3v mvt|
// *        |================================================================| 
// *        |        nmos        |    n18   |     n33   |  nmvt18  | nmvt33  |
// *        *----------------------------------------------------------------*
// *        |        pmos        |    p18   |     p33   |  pmvt18  |
// *        *------------------------------------------------------*
// *        |    native nmos     |   nnt18  |    nnt33  |  
// *        *-------------------------------------------*
// *
// *    valid temperature range is from -40c to 125c
// *
// ***********************************************************************************
// *                              1.8v core nmos model                               *
// ***********************************************************************************
// * $$model information
// * $$model name:n18
// * $$voltage range:vd,0,1.8,vg,0,1.8,vb,0,-1.8
// * $$dimension:w,0.22u,10u,l,0.18u,10u
// * $$model instance:nf,1,2,100,mr,1,1,100,sa,5u,5u,5u,sb,5u,5u,5u,sd,5u,5u,5u,sc,5u,5u,5u
// * $$model capability:mismatch,0,mc,1,noise,1,wpe,0,lod,0,ig,0,lpe,0
// * $$pm:rt,1
// * $$vth method:vd,0.1,icon,1e-7,gm,0
// * $$temperature:t,-40,25,125
model n18 bsim4 type = n
// ***************************************************************************
// *             model selector parameter
// ***************************************************************************
+version      = 4.5               binunit      = 2                 paramchk     = 1                 
+mobmod       = 0                 capmod       = 2                 rgatemod     = 0                 
+geomod       = 0                 rgeomod      = 1                 diomod       = 2                 
+rdsmod       = 0                 rbodymod     = 0                 fnoimod      = 1                 
+tnoimod      = 0                 tempmod      = 0                 permod       = 1                 
+acnqsmod     = 0                 trnqsmod     = 0                 igcmod       = 1                 
+igbmod       = 1                 wpemod       = 0                 
// ***************************************************************************
// *             geometry range parameter
// ***************************************************************************
+lmin         = 1.5e-007          lmax         = 0.0001            wmin         = 1.9e-007          
+wmax         = 0.0001            
// ***************************************************************************
// *             process parameter
// ***************************************************************************
+epsrox       = 3.9               
+toxe         = 4.19e-009+dtoxe_n18                                                           
+dtox         = 3.36e-010         xj           = 1.6e-007          ndep         = 1.4563e+017       
+ngate        = 3e+020            nsd          = 1e+020            rsh          = 7.6               
// ***************************************************************************
// *             dw and dl parameter
// ***************************************************************************
+wl           = 0                 wln          = 1                 ww           = -2.7e-015         
+wwn          = 1                 wwl          = -8e-022           ll           = -7e-016           
+lln          = 1                 lw           = -3.5e-015         lwn          = 1                 
+lwl          = 0                 llc          = 0                 lwc          = 0                 
+lwlc         = 0                 wlc          = 0                 wwc          = 0                 
+wwlc         = 0                 wint         = 1.6229e-008       lint         = 9e-009            
// ***************************************************************************
// *             layout-dependent parasitics model parameter
// ***************************************************************************
+dmcg         = 2.7e-007          dmci         = 2.7e-007          dwj          = 0                 
+xgw          = 0                 xgl          = 0                 
+xl           = -1.6e-008+dxl_n18                                                             
+xw           = 4.2e-008+dxw_n18                                                              
// ***************************************************************************
// *             basic: vth related  parameter
// ***************************************************************************
+vth0         = 0.4185+dvth0_n18                                                              
+lvth0        = -1.495e-008+dlvth0_n18                                                        
+wvth0        = -1.16e-008+dwvth0_n18                                                         
+pvth0        = 1.8e-015+dpvth0_n18                                                           
+vfb          = -1                phin         = 0.077042          k1           = 0.57819           
+wk1          = -1.7e-008         k2           = 0.0024336         lk2          = -1e-009           
+wk2          = 2e-009            pk2          = 1.4699e-015       k3           = 3                 
+k3b          = 3.76              w0           = 1.5e-006          lpe0         = 1.8e-007          
+llpe0        = 1.1e-016          lpeb         = 0                 vbm          = -3                
+dvt0         = 1.14              ldvt0        = -6.124e-008       dvt1         = 0.22              
+ldvt1        = 2e-009            dvt2         = -0.02944          dvtp0        = 0                 
+dvtp1        = 0                 dvt0w        = 0                 dvt1w        = 5300000           
+dvt2w        = -0.032            dwg          = 0                 dwb          = 0                 
// ***************************************************************************
// *             basic: mobility related parameter
// ***************************************************************************
+u0           = 0.028012+du0_n18                                                              
+lu0          = 5.4e-010+dlu0_n18                                                             
+wu0          = -4.51e-010+dwu0_n18                                                           
+pu0          = 4.6575e-016+dpu0_n18                                                          
+ua           = -1.8869e-009      lua          = -3e-017           wua          = 7.6568e-017       
+pua          = 6.4915e-024       ub           = 3.515e-018        lub          = 2.92e-026         
+wub          = -1.274e-025       pub          = -7.86e-033        uc           = 1.4426e-010       
+luc          = 2.1688e-018       wuc          = -1.2768e-017      puc          = 8e-025            
+ud           = 0                 eu           = 1.67              
+vsat         = 70000+dvsat_n18                                                               
+lvsat        = 0.0006+dlvsat_n18                                                             
+pvsat        = 5.2036e-010+dpvsat_n18                                                        
+a0           = 1.6               la0          = -4e-007           pa0          = 5e-014            
+ags          = 0.56              lags         = 1.5e-007          wags         = -3e-008           
+pags         = 6e-014            b0           = 0                 b1           = 0                 
+keta         = -0.045548         lketa        = -7.6454e-009      wketa        = 1.0136e-008       
+pketa        = -1e-015           a1           = 0                 a2           = 0.99              
// ***************************************************************************
// *             basic: subthreshold related parameter
// ***************************************************************************
+voff         = -0.15+dvoff_n18                                                               
+pvoff        = -5e-016           voffl        = 0                 minv         = 0                 
+nfactor      = 1                 eta0         = 0.14              peta0        = -6e-016           
+etab         = -0.07             petab        = 3.6e-015          dsub         = 0.56              
+cit          = 0.00065           lcit         = 1.6e-010          pcit         = -1e-018           
+cdsc         = 0                 cdscb        = 0                 cdscd        = 0.0001            
// ***************************************************************************
// *             basic: output resistance related parameter
// ***************************************************************************
+pclm         = 0.31747           ppclm        = 4e-015            pdiblc1      = 0.04              
+pdiblc2      = 0.002             pdiblcb      = 0                 drout        = 0.56              
+pscbe1       = 3.45e+008         pscbe2       = 1e-006            pvag         = 0                 
+delta        = 0.001             pdits        = 0                 pditsl       = 0                 
+pditsd       = 0                 lambda       = 0                 
// ***************************************************************************
// *             asymmetric and bias-dependent
// ***************************************************************************
+rdsw         = 90                rdswmin      = 0                 rdw          = 47                
+rdwmin       = 0                 rsw          = 47                rswmin       = 0                 
+prwg         = 0                 prwb         = 0                 wr           = 1                 
// ***************************************************************************
// *             impact ionization current model parameters
// ***************************************************************************
+alpha0       = 0                 alpha1       = 4.1739            lalpha1      = 2e-007            
+walpha1      = 4.64e-008         palpha1      = 2.5e-014          beta0        = 15.901            
// ***************************************************************************
// *             gate dielectric tunneling current
// ***************************************************************************
+aigbacc      = 0.43              bigbacc      = 0.054             cigbacc      = 0.075             
+nigbacc      = 1                 aigbinv      = 0.0088021         bigbinv      = 0.000949          
+cigbinv      = 0.006             eigbinv      = 1.1               nigbinv      = 3                 
+aigc         = 0.015123          bigc         = 0.0017647         cigc         = 0.0702            
+dlcig        = 1e-012            aigsd        = 0.0038304         waigsd       = -2e-010           
+paigsd       = -5e-018           bigsd        = 0.00030435        cigsd        = 0.19301           
+nigc         = 1.288             poxedge      = 1                 pigcd        = 1                 
+ntox         = 1                 toxref       = 3e-009            
// ***************************************************************************
// *             gidl effect parameters
// ***************************************************************************
+agidl        = 8.5074e-007       wagidl       = 2e-013            bgidl        = 2.9037e+009       
+wbgidl       = -50               cgidl        = 0.1               egidl        = 0.1               
// ***************************************************************************
// *             flicker noise model parameter
// ***************************************************************************
+noia         = 6.24173e+041      noib         = 1.42569e+022      noic         = 6.62e+008         
+em           = 54761.2           ef           = 0.98              lintnoi      = -2e-008           
+ntnoi        = 1                 
// ***************************************************************************
// *             high-speed rf model parameters
// ***************************************************************************
// ***************************************************************************
// *             capacitance parameter
// ***************************************************************************
+xpart        = 0                 
+cgdo         = 1.8e-010+dcgdo_n18                                                            
+cgso         = 1.8e-010+dcgdo_n18                                                            
+cgbo         = 0                 
+cgdl         = 9e-011+dcgdl_n18                                                              
+cgsl         = 9e-011+dcgdl_n18                                                              
+cf           = 8.54e-011+dcf_n18                                                             
+clc          = 0                 cle          = 0.6               dlc          = 2.8339e-008       
+dwc          = -1.6e-008         vfbcv        = -1                noff         = 1.6804            
+lnoff        = 1e-007            voffcv       = -0.020304         lvoffcv      = -2.088e-009       
+acde         = 0.384             moin         = 13.3              
// ***************************************************************************
// *             souce|drain junction diode model parameter
// ***************************************************************************
+ijthsrev     = 0.1               ijthsfwd     = 0.1               xjbvs        = 1                 
+bvs          = 11.5              jss          = 1.1508e-006       jsws         = 1.4205e-014       
+jswgs        = 1.134e-013        jtss         = 0                 jtsd         = 0                 
+jtssws       = 0                 jtsswd       = 0                 jtsswgs      = 2e-008            
+jtsswgd      = 6e-009            njts         = 20                njtssw       = 20                
+njtsswg      = 20                xtss         = 0.02              xtsd         = 0.02              
+xtssws       = 0.02              xtsswd       = 0.02              xtsswgs      = 0.02              
+xtsswgd      = 0.02              tnjts        = 0                 tnjtssw      = 0                 
+tnjtsswg     = 0                 
+cjs          = 0.00098714+dcj_n18                                                            
+cjsws        = 5.8272e-011+dcjsw_n18                                                         
+cjswgs       = 3.7e-010+dcjswg_n18                                                           
+mjs          = 0.34744           mjsws        = 0.19672           mjswgs       = 0.84898           
+pbs          = 0.70413           pbsws        = 0.58719           pbswgs       = 1.6255            
// ***************************************************************************
// *             temperature coefficient
// ***************************************************************************
+tnom         = 25                ute          = -1.4012           lute         = 1.48e-008         
+kt1          = -0.24949          kt1l         = -2.9274e-009      kt2          = -0.05             
+wkt2         = 4e-009            ua1          = 1.76e-009         wua1         = -1.1e-016         
+pua1         = 1.625e-023        ub1          = -1.9392e-018      lub1         = -8.232e-026       
+wub1         = 1e-026            pub1         = -3.12e-033        uc1          = 1.124e-010        
+luc1         = -1.62e-017        puc1         = -3e-024           at           = 31820             
+pat          = -2.1e-010         prt          = 0                 njs          = 1.1294            
+xtis         = 3                 tpb          = 0.001             tpbsw        = 0.000868          
+tpbswg       = 0.0015811         tcj          = 0.00083836        tcjsw        = 0.0014935         
+tcjswg       = 0.0006583         tvoff        = 0                 
// ***************************************************************************
// *             stress effect related parameter
// ***************************************************************************
+saref        = 4.48e-006         sbref        = 4.48e-006         wlod         = 0                 
+ku0          = -4.5e-008         kvsat        = 1                 tku0         = 0                 
+lku0         = 7e-007            wku0         = 5e-007            pku0         = 7e-013            
+llodku0      = 1                 wlodku0      = 1                 kvth0        = 3.5e-009          
+lkvth0       = -6e-008           wkvth0       = 1e-007            pkvth0       = 2e-014            
+llodvth      = 1                 wlodvth      = 1                 stk2         = 0                 
+lodk2        = 1                 steta0       = 0                 lodeta0      = 1                 
// ***************************************************************************
// *             well proximity effect model parameters
// ***************************************************************************
+web          = 0                 wec          = 0                 kvth0we      = 0                 
+k2we         = 0                 ku0we        = 0                 scref        = 1e-006            




// *
// ***********************************************************************************
// *                              1.8v core pmos model                               *
// ***********************************************************************************
// * $$model information
// * $$model name:p18
// * $$voltage range:vd,0,-1.8,vg,0,-1.8,vb,0,1.8
// * $$dimension:w,0.22u,10u,l,0.18u,10u
// * $$model instance:nf,1,2,100,mr,1,1,100,sa,5u,5u,5u,sb,5u,5u,5u,sd,5u,5u,5u,sc,5u,5u,5u
// * $$model capability:mismatch,0,mc,1,noise,1,wpe,0,lod,0,ig,0,lpe,0
// * $$pm:rt,1
// * $$vth method:vd,-0.1,icon,1e-7,gm,0
// * $$temperature:t,-40,25,125
// *
model p18 bsim4 type = p
// ***************************************************************************
// *             model selector parameter
// ***************************************************************************
+version      = 4.5               binunit      = 2                 paramchk     = 1                 
+mobmod       = 0                 capmod       = 2                 rgatemod     = 0                 
+geomod       = 0                 rgeomod      = 1                 diomod       = 2                 
+rdsmod       = 0                 rbodymod     = 0                 fnoimod      = 1                 
+tnoimod      = 0                 tempmod      = 0                 permod       = 1                 
+acnqsmod     = 0                 trnqsmod     = 0                 igcmod       = 1                 
+igbmod       = 1                 wpemod       = 0                 
// ***************************************************************************
// *             geometry range parameter
// ***************************************************************************
+lmin         = 1.5e-007          lmax         = 0.0001            wmin         = 1.9e-007          
+wmax         = 0.0001            
// ***************************************************************************
// *             process parameter
// ***************************************************************************
+epsrox       = 3.9               
+toxe         = 4.27e-009+dtoxe_p18                                                           
+dtox         = 4.49e-010         xj           = 1.6e-007          ndep         = 1.0196e+017       
+ngate        = 1.4e+020          nsd          = 1e+020            rsh          = 6.75              
// ***************************************************************************
// *             dw and dl parameter
// ***************************************************************************
+wl           = 4e-015            wln          = 1                 ww           = -2.9e-015         
+wwn          = 1                 wwl          = -1.6e-021         ll           = 5.8e-015          
+lln          = 1                 lw           = -5e-015           lwn          = 1                 
+lwl          = 2.1e-022          llc          = 0                 lwc          = 0                 
+lwlc         = 0                 wlc          = 0                 wwc          = 0                 
+wwlc         = 0                 wint         = 8e-009            lint         = -3.8e-008         
// ***************************************************************************
// *             layout-dependent parasitics model parameter
// ***************************************************************************
+dmcg         = 2.7e-007          dmci         = 2.7e-007          dwj          = 0                 
+xgw          = 0                 xgl          = 0                 
+xl           = -1.3e-008+dxl_p18                                                             
+xw           = 4.2e-008+dxw_p18                                                              
// ***************************************************************************
// *             basic: vth related  parameter
// ***************************************************************************
+vth0         = -0.424+dvth0_p18                                                              
+lvth0        = 6.0043e-009+dlvth0_p18                                                        
+wvth0        = 7.0678e-009+dwvth0_p18                                                        
+pvth0        = -2.5096e-015+dpvth0_p18                                                       
+vfb          = -1                phin         = 0.00784           k1           = 0.59936           
+wk1          = -1.224e-008       pk1          = 4.864e-016        k2           = 0.001             
+lk2          = 1.6077e-009       k3           = 10                k3b          = -0.52             
+w0           = 9.0826e-006       
+lpe0         = 8.3442e-008+dlpe0_p18                                                         
+llpe0        = -3.1e-015         lpeb         = 0                 vbm          = -3                
+dvt0         = 0.10912           dvt1         = 0.7               pdvt1        = -2e-014           
+dvt2         = -0.04             dvtp0        = 0                 dvtp1        = 0                 
+dvt0w        = 0                 dvt1w        = 5724000           dvt2w        = -0.032            
+dwg          = 0                 dwb          = 0                 
// ***************************************************************************
// *             basic: mobility related parameter
// ***************************************************************************
+u0           = 0.0095+du0_p18                                                                
+lu0          = 6.4546e-010+dlu0_p18                                                          
+wu0          = -4.8639e-010+dwu0_p18                                                         
+pu0          = -5.65e-017+dpu0_p18                                                           
+ua           = 4.5895e-010       lua          = -5.1955e-017      wua          = -1.9101e-016      
+pua          = -8.5072e-024      ub           = 1.186e-018        lub          = 1.8e-025          
+wub          = -3.4e-026         pub          = -2.9e-032         uc           = -9e-013           
+luc          = 2.66e-017         wuc          = -3.1137e-017      puc          = -5e-024           
+ud           = 0                 eu           = 1                 
+vsat         = 90000+dvsat_p18                                                               
+lvsat        = 0.017934+dlvsat_p18                                                           
+pvsat        = -4.2733e-009+dpvsat_p18                                                       
+a0           = 1.3               ags          = 0.36618           lags         = 1.5e-007          
+wags         = 2.4972e-008       pags         = -8e-014           b0           = 1.5e-008          
+b1           = 0                 keta         = -0.02492          lketa        = -1.3175e-009      
+wketa        = 2e-008            pketa        = -1.2e-015         a1           = 0                 
+a2           = 0.99              
// ***************************************************************************
// *             basic: subthreshold related parameter
// ***************************************************************************
+voff         = -0.13138+dvoff_p18                                                            
+voffl        = 0                 
+minv         = 0+dminv_p18                                                                   
+lminv        = 0+dlminv_p18                                                                  
+nfactor      = 1                 eta0         = 0.197             leta0        = -8e-009           
+peta0        = 1e-015            etab         = -0.16842          dsub         = 0.56              
+cit          = 0.0012            lcit         = 1.6e-010          pcit         = 4.5e-017          
+cdsc         = 0                 cdscb        = 0                 cdscd        = 0.0001            
// ***************************************************************************
// *             basic: output resistance related parameter
// ***************************************************************************
+pclm         = 0.45942           pdiblc1      = 1e-006            pdiblc2      = 0.00316           
+lpdiblc2     = 1.4e-009          pdiblcb      = 0                 drout        = 0.56              
+pscbe1       = 3.45e+008         pscbe2       = 1e-006            pvag         = 0                 
+delta        = 0.0049056         pdits        = 0                 pditsl       = 0                 
+pditsd       = 0                 lambda       = 0                 
// ***************************************************************************
// *             asymmetric and bias-dependent
// ***************************************************************************
+rdsw         = 560               rdswmin      = 0                 rdw          = 0                 
+rdwmin       = 0                 rsw          = 280               rswmin       = 0                 
+prwg         = 0.4               prwb         = 0                 wr           = 1                 
// ***************************************************************************
// *             impact ionization current model parameters
// ***************************************************************************
+alpha0       = 1e-007            alpha1       = 6.3468            lalpha1      = 3.125e-007        
+walpha1      = 7.4012e-006       beta0        = 22.77             wbeta0       = 7.2864e-007       
// ***************************************************************************
// *             gate dielectric tunneling current
// ***************************************************************************
+aigbacc      = 0.38872           bigbacc      = 0.056592          cigbacc      = 0.0726            
+nigbacc      = 1.112             aigbinv      = 0.0094803         bigbinv      = 0.000949          
+cigbinv      = 0.006             eigbinv      = 1.1               nigbinv      = 3                 
+aigc         = 0.0092217         bigc         = 0.0019436         cigc         = 0.0702            
+dlcig        = 1e-012            aigsd        = 0.0029613         bigsd        = 0.00013888        
+cigsd        = 0.0786            nigc         = 1.288             poxedge      = 1                 
+pigcd        = 1                 ntox         = 1                 toxref       = 3e-009            
// ***************************************************************************
// *             gidl effect parameters
// ***************************************************************************
+agidl        = 1e-007            bgidl        = 2.7937e+009       pbgidl       = -2.2e-005         
+cgidl        = 0.2027            egidl        = 0.084             
// ***************************************************************************
// *             flicker noise model parameter
// ***************************************************************************
+noia         = 8e+041            noib         = 1.42569e+022      noic         = 1.20341e+010      
+em           = 54761.2           ef           = 1.1               lintnoi      = -3e-008           
+ntnoi        = 1                 
// ***************************************************************************
// *             high-speed rf model parameters
// ***************************************************************************
// ***************************************************************************
// *             capacitance parameter
// ***************************************************************************
+xpart        = 0                 
+cgdo         = 2.1e-010+dcgdo_p18                                                            