// *Spectre Model Format
simulator lang=spectre  insensitive=yes
//* 
//* 
//  No part of this file can be released without the consent of SMIC.
//
//*****************************************************************************************
//      SMIC 0.18um Mixed Signal Enhanced 1.8V/3.3V SPICE Model  (for Spectre only)   *
//*****************************************************************************************
//
//  Release version    : 1.11
//
//  Release date       : 10/14/2016
//
//  Simulation tool    : Cadence Spectre V10.1.1
// *  the valid temperature range is from -40c to 125c
// *
// *
// * Model name         :
// *   Vertical PNP BJT :
// *        *-------------------------------------------------------* 
// *        | P+/NWELL/PSUB BJT type        |   1.8V    |   3.3V    |
// *        |=======================================================|
// *        | Emitter Area: 10*10 um^2      | pnp18a100 | pnp33a100 |
// *        |-------------------------------------------------------|  
// *        | Emitter Area: 5*5 um^2        |  pnp18a25 | pnp33a25  |
// *        |-------------------------------------------------------| 
// *        | Emitter Area: 2*2 um^2        |  pnp18a4  | pnp33a4   |
// *        *-------------------------------------------------------* 
// *
// *   Vertical NPN BJT :
// *        *-------------------------------------------------------* 
// *        |  N+/PWELL/DeepNWELL BJT type  |   1.8V    |   3.3V    |
// *        |=======================================================|
// *        | Emitter Area: 10*10 um^2      | npn18a100 | npn33a100 |
// *        |-------------------------------------------------------|  
// *        | Emitter Area: 5*5 um^2        | npn18a25  | npn33a25  |
// *        |-------------------------------------------------------| 
// *        | Emitter Area: 2*2 um^2        | npn18a4   | npn33a4   |
// *        *-------------------------------------------------------* 
// *
// *   Valid temperature range is from -40C to 125C
// ***********************************************************************************
// *      1.8v vertical p+/nwell/psub bipolar model (emitter area=10x10um^2)         *
// ***********************************************************************************
// *
// * $$model information
// * $$model name: pnp18a100
// * $$voltage range:ve,0,1.2,vc,0,1.2,vb,0,1.2
// * $$dimension:no
// * $$model instance:m,1,1,100
// * $$model capability:mismatch,1,mc,1
// * $$temperature:t,-40,25,125
// **
model pnp18a100 bjt type = pnp
// **************************************************************
// *               general parameters
// **************************************************************
+tnom = 25 
// **************************************************************
// *               capacitance parameters
// **************************************************************
+cjc = 3.35e-014+dcjc_pnp18a100 cje = 1.13e-013+dcje_pnp18a100 fc = 0 mjc = 0.263 
+mje = 0.418 vjc = 0.416 vje = 0.840 
// **************************************************************
// *               noise parameters
// **************************************************************
// **************************************************************
// *               dc parameters
// **************************************************************
+is = 1.2455e-017+dis_pnp18a100 subs = 1 rb = 60.398+drb_pnp18a100 re = 1.1166+dre_pnp18a100 
+irb = 0.0008 rc = 17.11+drc_pnp18a100 rbm = 2+drbm_pnp18a100 bf = 2.7451+dbf_pnp18a100 
+nf = 1.0034+dnf_pnp18a100 vaf = 503.69 ikf = 0.0020384+dikf_pnp18a100 ise = 9e-017 
+ne = 1.503 br = 0.0078578 nr = 1.0032 var = 25 
+ikr = 0.00209 nkf = 0.50576 isc = 5.5e-017 nc = 1.5 
// **************************************************************
// *               temperature parameters
// **************************************************************
+xtb = 0 xti = 3 eg = 1.16 ctc = 0.00176 
+cte = 0.001019 tlev = 0 tlevc = 1 tvjc = 0.00155 
+tvje = 0.0014196 tis1 = 0 tnf1 = 1.0454e-008 tne1 = 0.0001 
+tbf1 = 0.0048216 tbr1 = -0.00086314 tikf1 = -0.001 tnf2 = 9.4e-011 
+tbr2 = 9.31e-006 tikf2 = -1.86e-005 
// **************************************************************
// *               quasi
// **************************************************************
// *
// ***********************************************************************************
// *      1.8v vertical p+/nwell/psub bipolar model (emitter area=5x5um^2)         *
// ***********************************************************************************
// *
// * $$model information
// * $$model name: pnp18a25
// * $$voltage range:ve,0,1.2,vc,0,1.2,vb,0,1.2
// * $$dimension:no
// * $$model instance:m,1,1,100
// * $$model capability:mismatch,1,mc,1
// * $$temperature:t,-40,25,125
// *************************************************************************************
// **
model pnp18a25 bjt type = pnp
// **************************************************************
// *               general parameters
// **************************************************************
+tnom = 25 
// **************************************************************
// *               capacitance parameters
// **************************************************************
+cjc = 1.585e-014+dcjc_pnp18a25 cje = 2.819e-014+dcje_pnp18a25 fc = 0 mjc = 0.263 
+mje = 0.418 vjc = 0.416 vje = 0.840 
// **************************************************************
// *               noise parameters
// **************************************************************
// **************************************************************
// *               dc parameters
// **************************************************************
+is = 3.1463e-018+dis_pnp18a25 subs = 1 rb = 70.398+drb_pnp18a25 re = 2.0699+dre_pnp18a25 
+irb = 0.0008 rc = 17.11+drc_pnp18a25 rbm = 2+drbm_pnp18a25 bf = 2.7144+dbf_pnp18a25 
+nf = 1+dnf_pnp18a25 vaf = 110.79 ikf = 0.00088498+dikf_pnp18a25 ise = 7.815e-017 
+ne = 1.5 br = 0.0031707 nr = 1 var = 20.677 
+ikr = 0.00209 nkf = 0.45134 isc = 5.5e-017 nc = 1.5 
// **************************************************************
// *               temperature parameters
// **************************************************************
+xtb = 0 xti = 3 eg = 1.16 ctc = 0.00176 
+cte = 0.001019 tlev = 0 tlevc = 1 tvjc = 0.00155 
+tvje = 0.0014196 tis1 = 0 tnf1 = 6e-010 tbf1 = 0.0051122 
+tbr1 = -0.0011021 tikf1 = -0.0001705 trb1 = 0 trc1 = 0 
+tre1 = 0 tnf2 = -4.9235e-007 tbf2 = 1.3202e-006 tbr2 = 1.1804e-005 
+tikf2 = -3.0995e-005 trb2 = 0 trc2 = 0 tre2 = 6.328e-005 
// **************************************************************
// *               quasi
// **************************************************************
// *
// ***********************************************************************************
// *      1.8v vertical p+/nwell/psub bipolar model (emitter area=2*2um^2)         *
// ***********************************************************************************
// *
// * $$model information
// * $$model name: pnp18a4
// * $$voltage range:ve,0,1.2,vc,0,1.2,vb,0,1.2
// * $$dimension:no
// * $$model instance:m,1,1,100
// * $$model capability:mismatch,1,mc,1
// * $$temperature:t,-40,25,125
// *************************************************************************************
// **
// **
model pnp18a4 bjt type = pnp
// **************************************************************
// *               general parameters
// **************************************************************
+tnom = 25 
// **************************************************************
// *               capacitance parameters
// **************************************************************
+cjc = 0.838e-014+dcjc_pnp18a4 cje = 4.51e-015+dcje_pnp18a4 fc = 0 mjc = 0.263 
+mje = 0.418 vjc = 0.416 vje = 0.840 
// **************************************************************
// *               noise parameters
// **************************************************************
// **************************************************************
// *               dc parameters
// **************************************************************
+is = 6.2078e-019+dis_pnp18a4 subs = 1 rb = 107.43+drb_pnp18a4 re = 1.8101+dre_pnp18a4 
+irb = 0.0015 rc = 12.115+drc_pnp18a4 rbm = 2+drbm_pnp18a4 bf = 2.73+dbf_pnp18a4 
+nf = 1+dnf_pnp18a4 vaf = 93.982 ikf = 0.00022698+dikf_pnp18a4 ise = 1.6995e-017 
+ne = 1.47 br = 0.000898 nr = 1 var = 16.702 
+ikr = 0.00179 nkf = 0.39826 isc = 2e-017 nc = 1.5 
// **************************************************************
// *               temperature parameters
// **************************************************************
+xtb = 0 xti = 3 eg = 1.16 ctc = 0.00176 
+cte = 0.001019 tlev = 0 tlevc = 1 tvjc = 0.00155 
+tvje = 0.0014196 tise1 = 0 tnf1 = -2e-005 tbf1 = 0.00545 
+tbr1 = -0.0011279 tikf1 = -0.001 tbf2 = 3.676e-006 tbr2 = 1.331e-005 
// *+tikf2   = 0
+tikf2 = -1.8e-006 
// **************************************************************
// *               quasi
// **************************************************************
// ***********************************************************************************
// *      3.3v vertical p+/nwell/psub bipolar model (emitter area=10*10um^2)         *
// ***********************************************************************************
// *
// * $$model information
// * $$model name: pnp33a100
// * $$voltage range:ve,0,1.2,vc,0,1.2,vb,0,1.2
// * $$dimension:no
// * $$model instance:m,1,1,100
// * $$model capability:mismatch,1,mc,1
// * $$temperature:t,-40,25,125
// *************************************************************************************
// **
// **
model pnp33a100 bjt type = pnp
// **************************************************************
// *               general parameters
// **************************************************************
+tnom = 25 
// **************************************************************
// *               capacitance parameters
// **************************************************************
+cjc = 3.35e-014+dcjc_pnp33a100 cje = 1.04e-013+dcje_pnp33a100 fc = 0 mjc = 0.263 
+mje = 0.398 vjc = 0.416 vje = 0.821 
// **************************************************************
// *               noise parameters
// **************************************************************
// **************************************************************
// *               dc parameters
// **************************************************************
+is = 1.3857e-017+dis_pnp33a100 subs = 1 rb = 53.633+drb_pnp33a100 re = 2.1765+dre_pnp33a100 
+irb = 0.0008 rc = 19.3+drc_pnp33a100 rbm = 2+drbm_pnp33a100 bf = 2.89+dbf_pnp33a100 
+nf = 1.006+dnf_pnp33a100 vaf = 261.45 ikf = 0.002077+dikf_pnp33a100 ise = 1.6773e-016 
+ne = 1.503 br = 0.00825 nr = 1.006 var = 27.431 
+ikr = 0.00209 nkf = 0.51359 isc = 5.5e-017 nc = 1.5 
// **************************************************************
// *               temperature parameters
// **************************************************************
+xtb = 0 xti = 3 eg = 1.16 ctc = 0.00176 
+cte = 0.0009267 tlev = 0 tlevc = 1 tvjc = 0.00155 
+tvje = 0.00154 tis1 = 0 tnf1 = 2.2837e-011 tnr1 = 0 
+tne1 = 0.0001 tbf1 = 0.00498 tbr1 = -0.00071553 tikf1 = -0.000999 
+trb1 = 0 trc1 = 0 tre1 = 0 tnf2 = 0 
+tbf2 = 2.02e-006 tbr2 = 1e-005 tikf2 = -2.4e-005 trb2 = 0 
+trc2 = 0 tre2 = 0 
// **************************************************************
// *               quasi
// **************************************************************
// ***********************************************************************************
// *      3.3v vertical p+/nwell/psub bipolar model (emitter area=5*5um^2)         *
// ***********************************************************************************
// *
// * $$model information
// * $$model name: pnp33a25
// * $$voltage range:ve,0,1.2,vc,0,1.2,vb,0,1.2
// * $$dimension:no
// * $$model instance:m,1,1,100
// * $$model capability:mismatch,1,mc,1
// * $$temperature:t,-40,25,125
// *************************************************************************************
// **
// **
model pnp33a25 bjt type = pnp
// **************************************************************
// *               general parameters
// **************************************************************
+tnom = 25 
// **************************************************************
// *               capacitance parameters
// **************************************************************
+cjc = 1.585e-014+dcjc_pnp33a25 cje = 2.61e-014+dcje_pnp33a25 fc = 0 mjc = 0.263 
+mje = 0.398 vjc = 0.416 vje = 0.821 
// **************************************************************
// *               noise parameters
// **************************************************************
// **************************************************************
// *               dc parameters
// **************************************************************
+is = 3.2806e-018+dis_pnp33a25 subs = 1 rb = 70.398+drb_pnp33a25 re = 3.4499+dre_pnp33a25 
+irb = 0.0008 rc = 17.11+drc_pnp33a25 rbm = 2+drbm_pnp33a25 bf = 2.8513+dbf_pnp33a25 
+nf = 0.995+dnf_pnp33a25 vaf = 553.93 ikf = 0.001074+dikf_pnp33a25 ise = 9.8674e-017 
+ne = 1.5 br = 0.0033731 nr = 0.995 var = 30.6 
+ikr = 0.00209 nkf = 0.4822 isc = 5.5e-017 nc = 1.5 
// **************************************************************
// *               temperature parameters
// **************************************************************
+xtb = 0 xti = 3 eg = 1.16 ctc = 0.00176 
+cte = 0.0009267 tlev = 0 tlevc = 1 tvjc = 0.00155 
+tvje = 0.00154 tis1 = 0 tnf1 = -1.432e-005 tbf1 = 0.00515 
+tbr1 = -0.0011021 tikf1 = -0.001 trb1 = 0 trc1 = 0 
+tre1 = 0 tbf2 = 0 tbr2 = 1.1804e-005 tikf2 = -3.0995e-006 
+trb2 = 0 trc2 = 0 tre2 = -4e-005 
// **************************************************************
// *               quasi
// **************************************************************
// ***********************************************************************************
// *      3.3v vertical p+/nwell/psub bipolar model (emitter area=2*2um^2)         *
// ***********************************************************************************
// *
// * $$model information
// * $$model name: pnp33a4
// * $$voltage range:ve,0,1.2,vc,0,1.2,vb,0,1.2
// * $$dimension:no
// * $$model instance:m,1,1,100
// * $$model capability:mismatch,1,mc,1
// * $$temperature:t,-40,25,125
// *************************************************************************************
// **
// **
model pnp33a4 bjt type = pnp
// **************************************************************
// *               general parameters
// **************************************************************
+tnom = 25 
// **************************************************************
// *               capacitance parameters
// **************************************************************
+cjc = 0.838e-014+dcjc_pnp33a4 cje = 4.176e-015+dcje_pnp33a4 fc = 0 mjc = 0.263 
+mje = 0.398 vjc = 0.416 vje = 0.821 
// **************************************************************
// *               noise parameters
// **************************************************************
// **************************************************************
// *               dc parameters
// **************************************************************
+is = 6.11e-019+dis_pnp33a4 subs = 1 rb = 107.43+drb_pnp33a4 re = 1.8101+dre_pnp33a4 
+irb = 0.0015 rc = 12.115+drc_pnp33a4 rbm = 2+drbm_pnp33a4 bf = 2.8509+dbf_pnp33a4 
+nf = 1+dnf_pnp33a4 vaf = 435.1 ikf = 0.00022698+dikf_pnp33a4 ise = 1.949e-017 
+ne = 1.47 br = 0.00094 nr = 0.998 var = 20.671 
+ikr = 0.00179 nkf = 0.39826 isc = 2e-017 nc = 1.5 
// **************************************************************
// *               temperature parameters
// **************************************************************
+xtb = 0 xti = 3 eg = 1.16 ctc = 0.00176 
+cte = 0.0009267 tlev = 0 tlevc = 1 tvjc = 0.00155 
+tvje = 0.00154 tise1 = 0 tnf1 = -3e-005 tbf1 = 0.00592 
+tbr1 = -0.0010143 tikf1 = -0.001 tbf2 = 0 tbr2 = 1.31e-005 
+tikf2 = -3e-006 
// **************************************************************
// *               quasi
// **************************************************************
// ***********************************************************************************
// *      1.8v vertical n+/pwell/deep nwell bipolar model (emitter area=10*10um^2)         *
// ***********************************************************************************
// *
// * $$model information
// * $$model name: npn18a100
// * $$voltage range:ve,0,1.2,vc,0,1.2,vb,0,1.2
// * $$dimension:no
// * $$model instance:m,1,1,100
// * $$model capability:mismatch,1,mc,1
// * $$temperature:t,-40,25,125
// *************************************************************************************
// **
// **
model npn18a100 bjt type = npn
// **************************************************************
// *               general parameters
// **************************************************************
+tnom = 25 
// **************************************************************
// *               capacitance parameters
// **************************************************************
+cjc = 1.28e-013+dcjc_npn18a100 cje = 0.987e-013+dcje_npn18a100 fc = 0 mjc = 0.330 
+mje = 0.347 vjc = 0.676 vje = 0.704 
// **************************************************************
// *               noise parameters
// **************************************************************
// **************************************************************
// *               dc parameters
// **************************************************************
+is = 3.3441e-017+dis_npn18a100 subs = 1 rb = 0.4678+drb_npn18a100 re = 8.424+dre_npn18a100 
+irb = 0.002 rc = 9.5909+drc_npn18a100 rbm = 0.4678+drbm_npn18a100 bf = 19.847+dbf_npn18a100 
+nf = 1.006+dnf_npn18a100 vaf = 40 ikf = 0.047045+dikf_npn18a100 ise = 3.2944e-016 
+ne = 1.447 br = 0.9874 nr = 1.005 var = 26.739 
+ikr = 0.0033 nkf = 0.60229 isc = 8.97e-016 nc = 1.4 
// **************************************************************
// *               temperature parameters
// **************************************************************
+xtb = 0 xti = 3 eg = 1.16 ctc = 0.00083836 
+cte = 0.00090633 tlev = 0 tlevc = 1 tvjc = 0.001448 
+tvje = 0.00147 tne1 = 0.00025 tbf1 = 0.0061 tbr1 = 0.0013532 
+tvar1 = 0 tikf1 = -0.001 tikr1 = 0 tbr2 = -6.26e-006 
+tikf2 = -1.224e-006 tnf1 = -0.00005 
// **************************************************************
// *               quasi
// **************************************************************
// ***********************************************************************************
// *      1.8v vertical n+/pwell/deep nwell bipolar model (emitter area=5*5um^2)     *
// ***********************************************************************************
// *
// * $$model information
// * $$model name: npn18a25
// * $$voltage range:ve,0,1.2,vc,0,1.2,vb,0,1.2
// * $$dimension:no
// * $$model instance:m,1,1,100
// * $$model capability:mismatch,1,mc,1
// * $$temperature:t,-40,25,125
// *************************************************************************************
// **
model npn18a25 bjt type = npn
// **************************************************************
// *               general parameters
// **************************************************************
+tnom = 25 
// **************************************************************
// *               capacitance parameters
// **************************************************************
+cjc = 6.03e-014+dcjc_npn18a25 cje = 2.47e-014+dcje_npn18a25 fc = 0 mjc = 0.330 
+mje = 0.347 vjc = 0.676 vje = 0.704 
// **************************************************************
// *               noise parameters
// **************************************************************
// **************************************************************
// *               dc parameters
// **************************************************************
+is = 9.84e-018+dis_npn18a25 subs = 1 rb = 51.85+drb_npn18a25 re = 14.768+dre_npn18a25 
+irb = 0.002 rc = 7.92+drc_npn18a25 rbm = 1+drbm_npn18a25 bf = 20.839+dbf_npn18a25 
+nf = 1.0065+dnf_npn18a25 vaf = 37 ikf = 0.0099868+dikf_npn18a25 ise = 2.0814e-016 
+ne = 1.487 br = 0.527 nr = 1.006 var = 28.076 
+ikr = 0.0013 nkf = 0.455 isc = 9e-016 nc = 1.4 
// **************************************************************
// *               temperature parameters
// **************************************************************
+xtb = 0 xti = 3 eg = 1.16 ctc = 0.00083836 
+cte = 0.00090633 tlev = 0 tlevc = 1 tvjc = 0.001448 
+tvje = 0.00147 tne1 = 0.00025 tbf1 = 0.00585 tbr1 = 0.0011093 
+tikf1 = -0.00088 tbr2 = -4.216e-006 tikf2 = -1.94e-005 
// **************************************************************
// *               quasi
// **************************************************************
// ***********************************************************************************
// *      1.8v vertical n+/pwell/deep nwell bipolar model (emitter area=2*2um^2)     *
// ***********************************************************************************
// *
// * $$model information
// * $$model name: npn18a4
// * $$voltage range:ve,0,1.2,vc,0,1.2,vb,0,1.2
// * $$dimension:no
// * $$model instance:m,1,1,100
// * $$model capability:mismatch,1,mc,1
// * $$temperature:t,-40,25,125
// *************************************************************************************
// **
// **
model npn18a4 bjt type = npn
// **************************************************************
// *               general parameters
// **************************************************************
+tnom = 25 
// **************************************************************
// *               capacitance parameters
// **************************************************************
+cjc = 3.19e-014+dcjc_npn18a4 cje = 3.95e-015+dcje_npn18a4 fc = 0 mjc = 0.330 
+mje = 0.347 vjc = 0.676 vje = 0.704 
// **************************************************************
// *               noise parameters
// **************************************************************
// **************************************************************
// *               dc parameters
// **************************************************************
+is = 1.6937e-018+dis_npn18a4 subs = 1 rb = 14.031+drb_npn18a4 re = 36.45+dre_npn18a4 
+irb = 0.0001 rc = 26.5+drc_npn18a4 rbm = 1+drbm_npn18a4 bf = 22.1+dbf_npn18a4 
+nf = 1.002+dnf_npn18a4 vaf = 61.355 ikf = 0.0011099+dikf_npn18a4 ise = 6.8172e-017 
+ne = 1.48 br = 0.17097 nr = 1.008 var = 28.361 
+ikr = 0.0013 nkf = 0.34216 isc = 5.8e-016 nc = 1.43 
// **************************************************************
// *               temperature parameters
// **************************************************************
+xtb = 0 xti = 3 eg = 1.16 ctc = 0.00083836 
+cte = 0.00090633 tlev = 0 tlevc = 1 tvjc = 0.001448 
+tvje = 0.001395 tnf1 = -3e-005 tne1 = 0.00025 tbf1 = 0.0059 
+tbr1 = 0.0011847 tvar1 = -0.00104 tikf1 = 0.0005 tbr2 = -5.22e-006 
+tikf2 = 0 
// **************************************************************
// *               quasi
// **************************************************************
// ***********************************************************************************
// *      3.3v vertical n+/pwell/deep nwell bipolar model (emitter area=10*10um^2)     *
// ***********************************************************************************
// *
// * $$model information
// * $$model name: npn33a100
// * $$voltage range:ve,0,1.2,vc,0,1.2,vb,0,1.2
// * $$dimension:no
// * $$model instance:m,1,1,100
// * $$model capability:mismatch,1,mc,1
// * $$temperature:t,-40,25,125
// *************************************************************************************
// **
// **
model npn33a100 bjt type = npn
// **************************************************************
// *               general parameters
// **************************************************************
+tnom = 25 
// **************************************************************
// *               capacitance parameters
// **************************************************************
+cjc = 1.2764e-013+dcjc_npn33a100 cje = 8.6098e-014+dcje_npn33a100 fc = 0 mjc = 0.330 
+mje = 0.32174 vjc = 0.676 vje = 0.70384 
// **************************************************************
// *               noise parameters
// **************************************************************
// **************************************************************
// *               dc parameters
// **************************************************************
+is = 4.5288e-017+dis_npn33a100 subs = 1 rb = 64.84+drb_npn33a100 re = 4.8+dre_npn33a100 
+irb = 0.008 rc = 1.07+drc_npn33a100 rbm = 1+drbm_npn33a100 bf = 25.54+dbf_npn33a100 
+nf = 1.0075+dnf_npn33a100 vaf = 50.818 ikf = 0.075458+dikf_npn33a100 ise = 3.8178e-016 
+ne = 1.5127 br = 1.197 nr = 1.0078 var = 21.301 
+ikr = 0.058 nkf = 0.99246 isc = 5.57e-016 nc = 1.4 
// **************************************************************
// *               temperature parameters
// **************************************************************
+xtb = 0 xti = 3 eg = 1.16 ctc = 0.000906 
+cte = 0.00093975 tlev = 0 tlevc = 1 tvjc = 0.001448 
+tvje = 0.0016752 tnf1 = -4.3115e-005 tnr1 = -4.25e-005 tne1 = 1e-006 
+tbf1 = 0.006338 tbr1 = 0.0013235 tikf1 = -0.001 tikr1 = 0 
+trb1 = 0 trc1 = 0 tre1 = 0 tbf2 = 9.6e-007 
+tbr2 = -4.1567e-006 tikf2 = -8.7989e-006 trb2 = 0 trc2 = 0 
+tre2 = 0 tvar1 = -0.003 
// **************************************************************
// *               quasi
// **************************************************************
// ***********************************************************************************
// *      3.3v vertical n+/pwell/deep nwell bipolar model (emitter area=5*5um^2)     *
// ***********************************************************************************
// *
// * $$model information
// * $$model name: npn33a25
// * $$voltage range:ve,0,1.2,vc,0,1.2,vb,0,1.2
// * $$dimension:no
// * $$model instance:m,1,1,100
// * $$model capability:mismatch,1,mc,1
// * $$temperature:t,-40,25,125
// *************************************************************************************
// **
model npn33a25 bjt type = npn
// **************************************************************
// *               general parameters
// **************************************************************
+tnom = 25 
// **************************************************************
// *               capacitance parameters
// **************************************************************
+cjc = 6.03282e-014+dcjc_npn33a25 cje = 2.1525e-014+dcje_npn33a25 fc = 0 mjc = 0.330 
+mje = 0.32174 vjc = 0.676 vje = 0.70384 
// **************************************************************
// *               noise parameters
// **************************************************************
// **************************************************************
// *               dc parameters
// **************************************************************
+is = 1.01e-017+dis_npn33a25 subs = 1 rb = 54.432+drb_npn33a25 re = 12.48+dre_npn33a25 
+irb = 0.0045 rc = 0.808+drc_npn33a25 rbm = 1+drbm_npn33a25 bf = 27.4+dbf_npn33a25 
+nf = 1+dnf_npn33a25 vaf = 52.4 ikf = 0.00543+dikf_npn33a25 ise = 4.1808e-017 
+ne = 1.3477 br = 0.62421 nr = 1 var = 21.621 
+ikr = 0.001 nkf = 0.41682 isc = 7e-016 nc = 1.4 
// **************************************************************
// *               temperature parameters
// **************************************************************
+xtb = 0 xti = 3 eg = 1.16 ctc = 0.000906 
+cte = 0.00093975 tlev = 0 tlevc = 1 tvjc = 0.001448 
+tvje = 0.0016752 tis1 = 0 tise1 = 0 tnf1 = -5.5e-5 
+tne1 = 0.00025 tbf1 = 0.00658 tbr1 = 0.001273 tikf1 = -0.001 
+trb1 = 0 trc1 = 0 tre1 = 0 tnf2 = 0 
+tbf2 = -1.6e-006 tbr2 = -4.7348e-006 tikf2 = -2.01e-006 trb2 = 0 
+trc2 = 0 tre2 = 0 tvar1 = -0.006 
// **************************************************************
// *               quasi
// **************************************************************
// ***********************************************************************************
// *      3.3v vertical n+/pwell/deep nwell bipolar model (emitter area=2*2um^2)     *
// ***********************************************************************************
// *
// * $$model information
// * $$model name: npn33a4
// * $$voltage range:ve,0,1.2,vc,0,1.2,vb,0,1.2
// * $$dimension:no
// * $$model instance:m,1,1,100
// * $$model capability:mismatch,1,mc,1
// * $$temperature:t,-40,25,125
// *************************************************************************************
// **
// **
model npn33a4 bjt type = npn
// **************************************************************
// *               general parameters
// **************************************************************
+tnom = 25 
// **************************************************************
// *               capacitance parameters
// **************************************************************
+cjc = 3.1909e-014+dcjc_npn33a4 cje = 3.4439e-015+dcje_npn33a4 fc = 0 mjc = 0.330 
+mje = 0.32174 vjc = 0.676 vje = 0.70384 
// **************************************************************
// *               noise parameters
// **************************************************************
// **************************************************************
// *               dc parameters
// **************************************************************
+is = 2.0648e-018+dis_npn33a4 subs = 1 rb = 121.8+drb_npn33a4 re = 32.45+dre_npn33a4 