// *Spectre Model Format
simulator lang=spectre  insensitive=yes
// * 
//* 
//  No part of this file can be released without the consent of SMIC.
//
//*****************************************************************************************
//      SMIC 0.18um Mixed Signal Enhanced 1.8V/3.3V SPICE Model  (for Spectre only)   *
//*****************************************************************************************
//
//  Release version    : 1.11
//
//  Release date       : 10/14/2016
//
//  Simulation tool    : Cadence Spectre V10.1.1
// * 
// *  the valid temperature range is from -40c to 125c
// *   Junction Diode   :
// *        *-----------------------------------*-----------*
// *        |  Junctio Diode type     |   3.3V  |   1.8V    |
// *        *===================================|===========*
// *        |      N+/PWELL           |  ndio33 |  ndio18   |
// *        *-----------------------------------|-----------*
// *        |      P+/NWELL           |  pdio33 |    pdio18 |
// *        *-----------------------------------|-----------*
// *        |      N+/PWELL MVT       |ndiomvt33|  ndiomvt18|
// *        *-----------------------------------|-----------*
// *        |      P+/NWELL MVT       |         |  pdiomvt18|
// *        *-----------------------------------|-----------*
// *        |      N+/Psub            | nndio33 |  nndio18  |
// *        *-----------------------------------|-----------*
// *        |      Nwell/Psub         |        nwdio        |
// *        *-----------------------------------------------*
// *        |     Buried Pwell/Deep Nwell   |  diobpw       |
// *        *-----------------------------------------------*
// *        |      Deep Nwell/Psub    |        dnwdio       |
// *        *-----------------------------------------------*
// *        |      parasitic Nwell/Psub   |parasitic_nwdio  |
// *        *-----------------------------------------------*
// *        | Buried Pwell/Deep Nwell   |  parasitic_diobpw |
// *        *-----------------------------------------------*
// *        |      Deep Nwell/Psub    |parasitic_dnwdio     |
// *        *-----------------------------------------------*
// ***********************************************************************************
// *                            1.8v n+/pwell diode model                            *
// ***********************************************************************************
// **
// * $$model information
// * $$model name: ndio18
// * $$voltage range:v,-11,1.8
// * $$dimension: w,60u, l,300u
// * $$model instance:m,1,1,100
// * $$model capability:mjsmatch,0,mc,0,nojse,0,wpe,0,lod,0,ig,0,lpe,0
// * $$pm:rt,0
// * $$vth method:no
// * $$temperature:t,-40,25,125
// **
model ndio18 diode
+level = 1 allow_scaling = yes dskip = no imax = 1e20  minr = 1e-20
+area = 1.8e-008 perim = 0.00072 tnom = 25 
+js = 1.1508e-006+djs_ndio18 isw = 1.4205e-014+djsw_ndio18 vb = 11.5 ibv = 55.6 
+n = 1.1294+dn_ndio18 ns = 1.1294+dn_ndio18 rs = 5.0328e-010 
+cj = 0.00098714+dcj_ndio18 cjsw = 5.8272e-011+dcjsw_ndio18 vj = 0.70413 vjsw = 0.58719 
+fcs = 0 mj = 0.34744 mjsw = 0.19672 fc = 0 
+tlev = 1 tlevc = 1 trs = 0.0019296 xti = 3 
+cta = 0.00083836 ctp = 0.001 pta = 0.001395 ptp = 0.000868 
+eg = 1.16  tcv = 0.0004
// *                           
// ***********************************************************************************
// *                            1.8v p+/nwell diode model                            *
// ***********************************************************************************
// **
// * $$model information
// * $$model name: pdio18
// * $$voltage range:v,-11,1.8
// * $$dimension: w,60u, l,300u
// * $$model instance:m,1,1,100
// * $$model capability:mismatch,0,mc,0,noise,0,wpe,0,lod,0,ig,0,lpe,0
// * $$pm:rt,0
// * $$vth method:no
// * $$temperature:t,-40,25,125
// **                      
model pdio18 diode
+level = 1 allow_scaling = yes dskip = no imax = 1e20  minr = 1e-6
// **************************************************************
// *               GENERAL PARAMETERS
// **************************************************************
+dcap = 2 area = 4e-010 perim = 8e-005 tnom = 25 
// **************************************************************
// *               DC PARAMETERS
// **************************************************************
+is = 9.5099e-008+dis_pdio18 isw = 2.9999e-014+djsw_pdio18 vb = 10.6 ibv = 2500 
+n = 0.99836+dn_pdio18 ns = 0.99836+dn_pdio18 rs = 3.6817e-009 
// **************************************************************
// *               CAPACITANCE PARAMETERS
// **************************************************************
+cj = 0.0011277+dcj_pdio18 cjp = 9.7023e-011+dcjp_pdio18 vj = 0.84022 vjsw = 0.43076 
+fcs = 0 mj = 0.41824 mjsw = 0.2959 fc = 0 
// **************************************************************
// *               NOISE PARAMETERS
// **************************************************************
// **************************************************************
// *               TEMPERATURE PARAMETERS
// **************************************************************
+tlev = 1 tlevc = 1 trs = 0.0022422 xti = 3 
+cta = 0.0010193 ctp = 0.00040931 pta = 0.0014196 ptp = 0.0009004 
+eg = 1.16 
// *
// **
// ***********************************************************************************
// *                            1.8v mvt n+/pwell diode model                        *
// ***********************************************************************************
// **
// * $$model information
// * $$model name: ndiomvt18
// * $$voltage range:v,-11,1.8
// * $$dimension: w,60u, l,300u
// * $$model instance:m,1,1,100
// * $$model capability:mismatch,0,mc,0,noise,0,wpe,0,lod,0,ig,0,lpe,0
// * $$pm:rt,0
// * $$vth method:no
// * $$temperature:t,-40,25,125
// **                      
model ndiomvt18 diode
+level = 1 allow_scaling = yes dskip = no imax = 1e20  minr = 1e-6
// **************************************************************
// *               general parameters
// **************************************************************
+dcap = 2 area = 3.6e-09 perim = 0.00024 tnom = 25 
// **************************************************************
// *               dc parameters
// **************************************************************
+js = 5.9072e-007+djs_ndiomvt18 isw = 3.9508e-013+djsw_ndiomvt18 expli = 1e+020 
+n = 1.0614+dn_ndiomvt18 ns = 1.0614+dn_ndiomvt18 rs = 2.1551e-008 jtun = 0 jtunsw = 0 
+ntun = 30 ibv = 2.78e+02 vb = 11.6 
// **************************************************************
// *               capacitance parameters
// **************************************************************
+cj = 0.0009365+dcj_ndiomvt18 cjsw = 6.0416e-011+dcjsw_ndiomvt18 vj = 0.6704 vjsw = 0.4 
+fcs = 0 mj = 0.325 mjsw = 0.1 fc = 0 
+tt = 0 
// **************************************************************
// *               noise parameters
// **************************************************************
// **************************************************************
// *               temperature parameters
// **************************************************************
+tlev = 1 tlevc = 1 tcv = 0 trs = 1.1631e-005 
+xti = 3 xtitun = 3 cta = 0.00086596765 ctp = 0.00067822556 
+pta = 0.00147537 ptp = 6.85687e-019 eg = 1.16 gap1 = 0.000702 
+gap2 = 1108 ttt1 = 0 ttt2 = 0 tm1 = 0 
+tm2 = 0 
// **
// ***********************************************************************************
// *                            1.8v mvt p+/nwell diode model                        *
// ***********************************************************************************
// **
// * $$model information
// * $$model name: pdiomvt18
// * $$voltage range:v,-11,1.8
// * $$dimension: w,60u, l,300u
// * $$model instance:m,1,1,100
// * $$model capability:mismatch,0,mc,0,noise,0,wpe,0,lod,0,ig,0,lpe,0
// * $$pm:rt,0
// * $$vth method:no
// * $$temperature:t,-40,25,125
// **                      
model pdiomvt18 diode
+level = 1 allow_scaling = yes dskip = no imax = 1e20  minr = 1e-6
// **************************************************************
// *               GENERAL PARAMETERS
// **************************************************************
+dcap = 2 area = 3.6e-009 perim = 0.00024 tnom = 25 
// **************************************************************
// *               DC PARAMETERS
// **************************************************************
+is = 3.0505e-007+dis_pdiomvt18 isw = 2.0742e-013+djsw_pdiomvt18 vb = 12.9 ibv = 278 
+n = 1.0475+dn_pdiomvt18 ns = 1.0475+dn_pdiomvt18 rs = 9.5089e-009 
// **************************************************************
// *               CAPACITANCE PARAMETERS
// **************************************************************
+cj = 0.000785+dcj_pdiomvt18 cjp = 4.974e-011+dcjp_pdiomvt18 vj = 0.6677 vjsw = 0.33096 
+fcs = 0 mj = 0.305 mjsw = 0.065586 fc = 0 
// **************************************************************
// *               NOISE PARAMETERS
// **************************************************************
// **************************************************************
// *               TEMPERATURE PARAMETERS
// **************************************************************
+tlev = 1 tlevc = 1 tcv = 0 trs = 0.0029535 
+xti = 3 cta = 0.0009931 ctp = 0.00010115 pta = 0.0016967 
+ptp = 0.001738 eg = 1.16 
// ***********************************************************************************
// *                            3.3v mvt n+/pwell diode model                        *
// ***********************************************************************************
// **
// * $$model information
// * $$model name: ndiomvt33
// * $$voltage range:v,-11,3.3
// * $$dimension: w,60u, l,300u
// * $$model instance:m,1,1,100
// * $$model capability:mismatch,0,mc,0,noise,0,wpe,0,lod,0,ig,0,lpe,0
// * $$pm:rt,0
// * $$vth method:no
// * $$temperature:t,-40,25,125
// **                      
model ndiomvt33 diode
+level = 1 allow_scaling = yes dskip = no imax = 1e20  minr = 1e-6
// **************************************************************
// *               general parameters
// **************************************************************
+dcap = 2 area = 3.6e-09 perim = 0.00024 tnom = 25 
// **************************************************************
// *               dc parameters
// **************************************************************
+js = 9.312e-007+djs_ndiomvt33 isw = 1.9754e-013+djsw_ndiomvt33 expli = 1e+020 
+n = 1.0614+dn_ndiomvt33 ns = 1.0614+dn_ndiomvt33 rs = 2.117e-008 jtun = 0 jtunsw = 0 
+ntun = 30 ibv = 2.78e+02 vb = 11.7 
// **************************************************************
// *               capacitance parameters
// **************************************************************
+cj = 0.00086422+dcj_ndiomvt33 cjsw = 1.0709e-010+dcjsw_ndiomvt33 vj = 0.70961 vjsw = 0.49653 
+fcs = 0 mj = 0.32454 mjsw = 0.18129 fc = 0 
+tt = 0 
// **************************************************************
// *               noise parameters
// **************************************************************
// **************************************************************
// *               temperature parameters
// **************************************************************
+tlev = 1 tlevc = 1 tcv = 0 trs = 0.001584 
+xti = 3 xtitun = 3 cta = 0.00089873 ctp = 0.00075113 
+pta = 0.0016309 ptp = 0.00098455 eg = 1.16 gap1 = 0.000702 
+gap2 = 1108 ttt1 = 0 ttt2 = 0 tm1 = 0 
+tm2 = 0 
// ***********************************************************************************
// *                              nwell/psub diode model                             *
// ***********************************************************************************           
// **
// * $$model information
// * $$model name: nwdio
// * $$voltage range:v,-15,3.3
// * $$dimension: w,60u, l,300u
// * $$model instance:m,1,1,100
// * $$model capability:mjsmatch,0,mc,0,nojse,0,wpe,0,lod,0,ig,0,lpe,0
// * $$pm:rt,0
// * $$vth method:no
// * $$temperature:t,-40,25,125
// **  
model nwdio diode
+level = 1 allow_scaling = yes dskip = no imax = 1e20  minr = 1e-6
// **************************************************************
// *               GENERAL PARAMETERS
// **************************************************************
+dcap = 2 area = 9.6e-009 perim = 4e-004 tnom = 25 
// **************************************************************
// *               DC PARAMETERS
// **************************************************************
+is = 2.3733e-006+dis_nwdio isw = 2.9142e-014+djsw_nwdio vb = 15 ibv = 104 
+n = 1.085+dn_nwdio ns = 1.085+dn_nwdio rs = 8.4602e-009 
// **************************************************************
// *               CAPACITANCE PARAMETERS
// **************************************************************
+cj = 0.000131+dcj_nwdio cjp = 5.0047e-010+dcjp_nwdio vj = 0.41624 vjsw = 0.81575 
+fcs = 0 mj = 0.26295 mjsw = 0.377 fc = 0 
// **************************************************************
// *               NOISE PARAMETERS
// **************************************************************
// **************************************************************
// *               TEMPERATURE PARAMETERS
// **************************************************************
+tlev = 1 tlevc = 1 trs = 0.0004 xti = 3 
+cta = 0.0017608 ctp = 0.0012659 pta = 0.00155 ptp = 0.0022128 
+eg = 1.16 
// *
// ********************************************************************************************
// ***********************************************************************************
// *                             3.3V N+/pwell diode model                           *
// ***********************************************************************************           
// * $$model information
// * $$model name: ndio33
// * $$voltage range:v,-11,3.3
// * $$dimension: w,60u, l,300u
// * $$model instance:m,1,1,100
// * $$model capability:mismatch,0,mc,0,noise,0,wpe,0,lod,0,ig,0,lpe,0
// * $$pm:rt,0
// * $$vth method:no
// * $$temperature:t,-40,25,125
// **                      
model ndio33 diode
+level = 1 allow_scaling = yes dskip = no imax = 1e20  minr = 1e-6
// **************************************************************
// *               general parameters
// **************************************************************
+dcap = 2 area = 4e-10 perim = 0.00008 tnom = 25 
// **************************************************************
// *               dc parameters
// **************************************************************
+js = 4.1904e-007+djs_ndio33 isw = 3.9508e-013+djsw_ndio33 expli = 1e+020 
+n = 1.0296+dn_ndio33 ns = 1.0296+dn_ndio33 rs = 2.8395e-009 jtun = 0 jtunsw = 0 
+ntun = 30 ibv = 2.50e+03 vb = 11.8 
// **************************************************************
// *               capacitance parameters
// **************************************************************
+cj = 0.00086098+dcj_ndio33 cjsw = 9.677e-011+dcjsw_ndio33 vj = 0.70384 vjsw = 0.44462 
+fcs = 0 mj = 0.32174 mjsw = 0.16049 fc = 0 
+tt = 0 
// **************************************************************
// *               noise parameters
// **************************************************************
// **************************************************************
// *               temperature parameters
// **************************************************************
+tlev = 1 tlevc = 1 tcv = 0 trs = 0.00065303 
+xti = 3 xtitun = 3 cta = 0.00093975 ctp = 0.00046393 
+pta = 0.0016752 ptp = 0.0009385 eg = 1.16 gap1 = 0.000702 
+gap2 = 1108 ttt1 = 0 ttt2 = 0 tm1 = 0 
+tm2 = 0 
// ***********************************************************************************
// *                             3.3V P+/nwell diode model                           *
// ***********************************************************************************           
// * $$model information
// * $$model name: pdio33
// * $$voltage range:v,-11,3.3
// * $$dimension: w,60u, l,300u
// * $$model instance:m,1,1,100
// * $$model capability:mismatch,0,mc,0,noise,0,wpe,0,lod,0,ig,0,lpe,0
// * $$pm:rt,0
// * $$vth method:no
// * $$temperature:t,-40,25,125
// **                      
model pdio33 diode
+level = 1 allow_scaling = yes dskip = no imax = 1e20  minr = 1e-6
// **************************************************************
// *               GENERAL PARAMETERS
// **************************************************************
+dcap = 2 area = 4e-010 perim = 8e-005 tnom = 25 
// **************************************************************
// *               DC PARAMETERS
// **************************************************************
+is = 1.0586e-007+dis_pdio33 isw = 4.9737e-014+djsw_pdio33 vb = 11.0 ibv = 2500 
+n = 0.99891+dn_pdio33 ns = 0.99891+dn_pdio33 rs = 5.8769e-009 
// **************************************************************
// *               CAPACITANCE PARAMETERS
// **************************************************************
+cj = 0.001044+dcj_pdio33 cjp = 8.5736e-011+dcjp_pdio33 vj = 0.82134 vjsw = 0.63646 
+fcs = 0 mj = 0.398 mjsw = 0.30364 fc = 0 
// **************************************************************
// *               NOISE PARAMETERS
// **************************************************************
// **************************************************************
// *               TEMPERATURE PARAMETERS
// **************************************************************
+tlev = 1 tlevc = 1 tcv = 0 trs = 0.002833 
+xti = 3 cta = 0.00092673 ctp = 0.0012244 pta = 0.0015412 
+ptp = 0.0022178 eg = 1.16 
// ***********************************************************************************
// *                             3.3V N+/Psub diode model                           *
// ***********************************************************************************           
// * $$model information
// * $$model name: nndio33
// * $$voltage range:v,-15,3.3
// * $$dimension: w,60u, l,300u
// * $$model instance:m,1,1,100
// * $$model capability:mismatch,0,mc,0,noise,0,wpe,0,lod,0,ig,0,lpe,0
// * $$pm:rt,0
// * $$vth method:no
// * $$temperature:t,-40,25,125
model nndio33 diode
+level = 1 allow_scaling = yes dskip = no imax = 1e20  minr = 1e-6
// **************************************************************
// *               general parameters
// **************************************************************
+dcap = 2 area = 3.6e-09 perim = 0.00024 tnom = 25 
// **************************************************************
// *               dc parameters
// **************************************************************
+js = 3.7247e-006+djs_nndio33 isw = 3.9508e-012+djsw_nndio33 expli = 1e+020 
+n = 1.0614+dn_nndio33 ns = 1.0614+dn_nndio33 rs = 1.9072e-008 jtun = 0 jtunsw = 0 
+ntun = 30 ibv = 2.78e+02 vb = 15.8 
// **************************************************************
// *               capacitance parameters
// **************************************************************
+cj = 0.00013166+dcj_nndio33 cjsw = 2.1332e-010+dcjsw_nndio33 vj = 0.56419 vjsw = 0.47397 
+fcs = 0 mj = 0.40205 mjsw = 0.10493 fc = 0 
+tt = 0 
// **************************************************************
// *               noise parameters
// **************************************************************
// **************************************************************
// *               temperature parameters
// **************************************************************
+tlev = 1 tlevc = 1 tcv = 0 trs = 0.0014887 
+xti = 3 xtitun = 3 cta = 0.002122 ctp = 0.00043033 
+pta = 0.001267 ptp = 0.001361 eg = 1.16 gap1 = 0.000702 
+gap2 = 1108 ttt1 = 0 ttt2 = 0 tm1 = 0 
+tm2 = 0 
// ***********************************************************************************
// *                        buried pwell/deep nwell diode model                      * 
// ***********************************************************************************
// **
// * $$model information
// * $$model name: diobpw
// * $$voltage range:v,-10,3.3
// * $$dimension: w,60u, l,300u
// * $$model instance:m,1,1,100
// * $$model capability:mjsmatch,0,mc,0,nojse,0,wpe,0,lod,0,ig,0,lpe,0
// * $$pm:rt,0
// * $$vth method:no
// * $$temperature:t,-40,25,125
// **
model diobpw diode
+level = 1 allow_scaling = yes dskip = no imax = 1e20  minr = 1e-20
+area = 1.8e-008 perim = 0.00072 tnom = 25 
+js = 1.0388e-006+djs_diobpw isw = 1.4035e-013+djsw_diobpw vb = 15.5 ibv = 55.6 
+n = 1.1225+dn_diobpw ns = 1.1225+dn_diobpw rs = 1.8727e-010 
+cj = 0.00049858+dcj_diobpw cjsw = 3.9867e-010+dcjsw_diobpw vj = 0.67589 vjsw = 0.88873 
+fcs = 0 mj = 0.33041 mjsw = 0.444 fc = 0 
+tlev = 1 tlevc = 1 trs = 0.00035608 xti = 3 
+cta = 0.00090633 ctp = 0.00080455 pta = 0.001448 ptp = 0.0012196 
+eg = 1.16  tcv = 0.0005
// ***********************************************************************************
// *                        deep nwell/pusb diode model                              * 
// ***********************************************************************************
// **
// * $$model information
// * $$model name: dnwdio
// * $$voltage range:v,-40,3.3
// * $$dimension: w,60u, l,300u
// * $$model instance:m,1,1,100
// * $$model capability:mismatch,0,mc,0,noise,0,wpe,0,lod,0,ig,0,lpe,0
// * $$pm:rt,0
// * $$vth method:no
// * $$temperature:t,-40,25,125
// **
model dnwdio diode
+level = 1 allow_scaling = yes dskip = no imax = 1e20  minr = 1e-20
+area = 1.8e-008 perim = 0.00072 tnom = 25 
+js = 2.1632e-006+djs_dnwdio isw = 1.177e-012+djsw_dnwdio vb = 16 ibv = 55.556 
+n = 1.0435+dn_dnwdio ns = 1.0435+dn_dnwdio rs = 1.3973e-007 
+cj = 0.00013824+dcj_dnwdio cjsw = 4.1094e-010+dcjsw_dnwdio vj = 0.52465 vjsw = 0.62598 
+fcs = 0 mj = 0.32294 mjsw = 0.35115 fc = 0 
+tlev = 1 tlevc = 1 trs = 1e-005 xti = 3 
+cta = 0.001326 ctp = 0.001221 pta = 0.0013127 ptp = 0.0015078 
+eg = 1.16 gap1 = 7.02e-04 tcv = 0.0006
// *
// ***********************************************************************************
// *                   parasitic  deep nwell/pusb diode model                        * 
// ***********************************************************************************
// **
// * $$model information
// * $$model name: parasitic_dnwdio
// * $$voltage range:v,-40,3.3
// * $$dimension: w,60u, l,300u
// * $$model instance:m,1,1,100
// * $$model capability:mismatch,0,mc,0,noise,0,wpe,0,lod,0,ig,0,lpe,0
// * $$pm:rt,0
// * $$vth method:no
// * $$temperature:t,-40,25,125
// **
model parasitic_dnwdio diode
+level = 1 allow_scaling = yes dskip = no imax = 1e20  minr = 1e-20
+area = 1.8e-008 perim = 0.00072 tnom = 25 
+js = 2.1632e-006+djs_dnwdio isw = 1.177e-012+djsw_dnwdio vb = 16 ibv = 55.556 
+n = 1.0435+dn_dnwdio ns = 1.0435+dn_dnwdio rs = 1.3973e-007 
+cj = 0.00013824+dcj_dnwdio cjsw = 4.1094e-010+dcjsw_dnwdio vj = 0.52465 vjsw = 0.62598 
+fcs = 0 mj = 0.32294 mjsw = 0.35115 fc = 0 
+tlev = 1 tlevc = 1 trs = 1e-005 xti = 3 
+cta = 0.001326 ctp = 0.001221 pta = 0.0013127 ptp = 0.0015078 
+eg = 1.16 gap1 = 7.02e-04 tcv = 0.0006
// *
// ***********************************************************************************
// *                  parasitic   nwell/psub diode model                             *
// ***********************************************************************************           
// **
// * $$model information
// * $$model name: parasitic_nwdio
// * $$voltage range:v,-15,3.3
// * $$dimension: w,60u, l,300u
// * $$model instance:m,1,1,100
// * $$model capability:mismatch,0,mc,0,noise,0,wpe,0,lod,0,ig,0,lpe,0
// * $$pm:rt,0
// * $$vth method:no
// * $$temperature:t,-40,25,125
// **
model parasitic_nwdio diode
+level = 1 allow_scaling = yes dskip = no imax = 1e20  minr = 1e-6
// **************************************************************
// *               GENERAL PARAMETERS
// **************************************************************
+dcap = 2 area = 9.6e-009 perim = 4e-004 tnom = 25 
// **************************************************************
// *               DC PARAMETERS
// **************************************************************
+is = 2.3733e-006+dis_nwdio isw = 2.9142e-014+djsw_nwdio vb = 15 ibv = 104 
+n = 1.085+dn_nwdio ns = 1.085+dn_nwdio rs = 8.4602e-009 
// **************************************************************
// *               CAPACITANCE PARAMETERS
// **************************************************************
+cj = 0.000131+dcj_nwdio cjp = 5.0047e-010+dcjp_nwdio vj = 0.41624 vjsw = 0.81575 
+fcs = 0 mj = 0.26295 mjsw = 0.377 fc = 0 
// **************************************************************
// *               NOISE PARAMETERS
// **************************************************************
// **************************************************************
// *               TEMPERATURE PARAMETERS
// **************************************************************
+tlev = 1 tlevc = 1 trs = 0.0004 xti = 3 
+cta = 0.0017608 ctp = 0.0012659 pta = 0.00155 ptp = 0.0022128 
+eg = 1.16 
// *
// ***********************************************************************************
// *                parasitic  buried pwell/deep nwell diode model                   * 
// ***********************************************************************************
// **
// * $$model information
// * $$model name: parasitic_diobpw
// * $$voltage range:v,-10,3.3
// * $$dimension: w,60u, l,300u
// * $$model instance:m,1,1,100
// * $$model capability:mismatch,0,mc,0,noise,0,wpe,0,lod,0,ig,0,lpe,0
// * $$pm:rt,0
// * $$vth method:no
// * $$temperature:t,-40,25,125
// **
model parasitic_diobpw diode 
+level = 1 allow_scaling = yes dskip = no imax = 1e20  minr = 1e-20
+area = 1.8e-008 perim = 0.00072 tnom = 25 
+js = 1.0388e-006+djs_diobpw isw = 1.4035e-013+djsw_diobpw vb = 15.5 ibv = 55.6 
+n = 1.1225+dn_diobpw ns = 1.1225+dn_diobpw rs = 1.8727e-010 
+cj = 0.00049858+dcj_diobpw cjsw = 3.9867e-010+dcjsw_diobpw vj = 0.67589 vjsw = 0.88873 
+fcs = 0 mj = 0.33041 mjsw = 0.444 fc = 0 
+tlev = 1 tlevc = 1 trs = 0.00035608 xti = 3 
+cta = 0.00090633 ctp = 0.00080455 pta = 0.001448 ptp = 0.0012196 
+eg = 1.16 tcv = 0.0005
// *
// ***********************************************************************************
// *                             1.8v n+/psub diode model                           *
// ***********************************************************************************           
// * $$model information
// * $$model name: nndio18
// * $$voltage range:v,-16,1.8
// * $$dimension: w,60u, l,300u
// * $$model instance:m,1,1,100
// * $$model capability:mismatch,0,mc,0,noise,0,wpe,0,lod,0,ig,0,lpe,0
// * $$pm:rt,0
// * $$vth method:no
// * $$temperature:t,-40,25,125
model nndio18 diode
+level = 1 allow_scaling = yes dskip = no imax = 1e20  minr = 1e-20
// **************************************************************
// *               general parameters
// **************************************************************
+area      = 3.6e-009         perim     = 0.00024          tnom      = 25               
// **************************************************************
// *               dc parameters
// **************************************************************
+is        = 5.2e-006+dis_nndio18 isw       = 1e-013+djsw_nndio18 vb        = 16.05            
+ibv       = 277.8            ikr     = 2.778E+5 n=1.0651+dn_nndio18 rs        = 1e-10            
+jtun      = 0.0001           jtunsw    = 1e-012           ntun      = 15               
// **************************************************************
// *               capacitance parameters
// **************************************************************
+cj        = 0.00019836+dcj_nndio18 cjp       = 1.1084e-010+dcjp_nndio18 vj        = 0.46053          vjsw      = 0.563            
+fcs       = 0                mj        = 0.22178          mjsw      = 0.06449          fc        = 0                
// **************************************************************
// *               noise parameters
// **************************************************************
// **************************************************************
// *               temperature parameters
// **************************************************************
+tlev      = 1                tlevc     = 1                trs       = 0.000934         xti       = 3                
+xtitun    = -8               cta       = 0.0012773        ctp       = 0.0011331        pta       = 0.0019399        
+ptp       = 0.0043016        eg        = 1.16             
