// * Spectre Model and Lib Format by SDMT
simulator lang=spectre  insensitive=yes

library ms018_enhanced_v1p11
// *this file contains 1.8v and 3.3v corner model parameters.
// *corners for mosfet:   tt, ff, ss, snfp, fnsp are corners for global variation.
// *                      mc is for monte carlo simulation of global variation.
// *corners for bjt:      bjt_tt, bjt_ff, bjt_ss are corners for global variation.
// *                      bjt_mc is for monte carlo simulation of global variation.
// *corner for diode:      dio_tt, dio_ff, dio_ss are corners for global variation.
// *corners for resistor: res_tt, res_ff, res_ss are corners for global variation.
// *                      res_mc is for monte carlo simulation of global variation.
// *corners for varactor: var_tt, var_ff, var_ss are corners for global variation.
// *                      var_mc is for monte carlo simulation of global variation.
// *corners for mim:      mim_tt, mim_ff, mim_ss are corners for global variation.
// *                      mim_mc is for monte carlo simulation of global variation.
// *this file should be used with the model parameter files 'ms018_enhanced_v1p11_spe_ig_on.mdl',
// *                                                        'ms018_enhanced_v1p11_bjt_spe.mdl',
// *                                                        'ms018_enhanced_v1p11_res_spe.mdl',
// *                                                        'ms018_enhanced_v1p11_res_spe.ckt',
// *                                                        'ms018_enhanced_v1p11_dio_spe.mdl',
// *                                                        'ms018_enhanced_v1p11_mim_spe.ckt',
// *                                                        'ms018_enhanced_v1p11_var_spe.ckt',
// *                                                        'ms018_enhanced_v1p11_mis_spe_ig_on.mdl'.
// *no part of this file can be released without the consent of smic.
section tt
setoption1 options gmin=1e-14
// ********************************
// **       bsim  model          **
// ********************************
// *1.8v core nmos (tt corner)
parameters dtoxe_n18 = 0
parameters dxl_n18 = 0
parameters dxw_n18 = 0
parameters dcj_n18 = 0
parameters dcjsw_n18 = 0
parameters dcjswg_n18 = 0
parameters dcgdo_n18 = 0
parameters dcgdl_n18 = 0
parameters dcf_n18 = 0
parameters dvth0_n18 = 0
parameters dlvth0_n18 = 0
parameters dpvth0_n18 = 0
parameters du0_n18 = 0
parameters dlu0_n18 = 0
parameters dpu0_n18 = 0
parameters dvsat_n18 = 0
parameters dlvsat_n18 = 0
parameters dpvsat_n18 = 0
parameters dvoff_n18 = 0
parameters dwvth0_n18 = 0
parameters dwu0_n18 = 0
// *1.8v core pmos (tt corner)
parameters dtoxe_p18 = 0
parameters dxl_p18 = 0
parameters dxw_p18 = 0
parameters dcj_p18 = 0
parameters dcjsw_p18 = 0
parameters dcjswg_p18 = 0
parameters dcgdo_p18 = 0
parameters dcgdl_p18 = 0
parameters dcf_p18 = 0
parameters dvth0_p18 = 0
parameters dlvth0_p18 = 0
parameters dpvth0_p18 = 0
parameters du0_p18 = 0
parameters dlu0_p18 = 0
parameters dpu0_p18 = 0
parameters dvsat_p18 = 0
parameters dlvsat_p18 = 0
parameters dpvsat_p18 = 0
parameters dvoff_p18 = 0
parameters dwvth0_p18 = 0
parameters dwu0_p18 = 0
parameters dlpe0_p18 = 0
parameters dminv_p18 = 0
parameters dlminv_p18 = 0
// *1.8v core native nmos (tt corner)
parameters dtoxe_nt18 = 0
parameters dxl_nt18 = 0
parameters dxw_nt18 = 0
parameters dcj_nt18 = 0
parameters dcjsw_nt18 = 0
parameters dcjswg_nt18 = 0
parameters dcgdo_nt18 = 0
parameters dcgdl_nt18 = 0
parameters dcf_nt18 = 0
parameters dvth0_nt18 = 0
parameters dlvth0_nt18 = 0
parameters dpvth0_nt18 = 0
parameters du0_nt18 = 0
parameters dlu0_nt18 = 0
parameters dpu0_nt18 = 0
parameters dvsat_nt18 = 0
parameters dlvsat_nt18 = 0
parameters dpvsat_nt18 = 0
parameters dvoff_nt18 = 0
parameters dwvth0_nt18 = 0
parameters dwu0_nt18 = 0
// *nmvt18(tt corner)
parameters dtoxe_nmvt18 = 0
parameters dxl_nmvt18 = 0
parameters dxw_nmvt18 = 0
parameters dvth0_nmvt18 = 0
parameters dlvth0_nmvt18 = 0
parameters dwvth0_nmvt18 = 0
parameters dpvth0_nmvt18 = 0
parameters du0_nmvt18 = 0
parameters dlu0_nmvt18 = 0
parameters dwu0_nmvt18 = 0
parameters dpu0_nmvt18 = 0
parameters dvsat_nmvt18 = 0
parameters dpvsat_nmvt18 = 0
parameters dwvsat_nmvt18 = 0
parameters dlvsat_nmvt18 = 0
parameters dcjs_nmvt18 = 0
parameters dcjsws_nmvt18 = 0
parameters dcjswgs_nmvt18 = 0
parameters dcgdo_nmvt18 = 0
parameters dcgsl_nmvt18 = 0
parameters dcgso_nmvt18 = 0
parameters dcgdl_nmvt18 = 0
parameters dcf_nmvt18 = 0
// *pmvt18(tt corner)
parameters dtoxe_pmvt18 = 0
parameters dxl_pmvt18 = 0
parameters dxw_pmvt18 = 0
parameters dvth0_pmvt18 = 0
parameters dlvth0_pmvt18 = 0
parameters dwvth0_pmvt18 = 0
parameters dpvth0_pmvt18 = 0
parameters du0_pmvt18 = 0
parameters dlu0_pmvt18 = 0
parameters dwu0_pmvt18 = 0
parameters dpu0_pmvt18 = 0
parameters dvsat_pmvt18 = 0
parameters dpvsat_pmvt18 = 0
parameters dwvsat_pmvt18 = 0
parameters dlvsat_pmvt18 = 0
parameters dcjs_pmvt18 = 0
parameters dcjsws_pmvt18 = 0
parameters dcjswgs_pmvt18 = 0
parameters dcgdo_pmvt18 = 0
parameters dcgso_pmvt18 = 0
parameters dcgdl_pmvt18 = 0
parameters dcgsl_pmvt18 = 0
parameters dcf_pmvt18 = 0
// *n33_ckt(tt corner)
parameters dtoxe_n33 = 0
parameters dxl_n33 = 0
parameters dxw_n33 = 0
parameters dcjs_n33 = 0
parameters dcjsws_n33 = 0
parameters dcjswgs_n33 = 0
parameters dcgdo_n33 = 0
parameters dcgdl_n33 = 0
parameters dcgso_n33 = 0
parameters dcgsl_n33 = 0
parameters dcf_n33 = 0
parameters dvth0_n33 = 0
parameters dlvth0_n33 = 0
parameters dwvth0_n33 = 0
parameters dpvth0_n33 = 0
parameters du0_n33 = 0
parameters dlu0_n33 = 0
parameters dwu0_n33 = 0
parameters dpu0_n33 = 0
parameters dvsat_n33 = 0
parameters dlvsat_n33 = 0
parameters dwvsat_n33 = 0
parameters dpvsat_n33 = 0
parameters djtsswgs_n33 = 0
parameters djtsswgd_n33 = 0
parameters dlagidl_n33 = 0
parameters dpagidl_n33 = 0
// *p33_ckt(tt corner)
parameters dtoxe_p33 = 0
parameters dxl_p33 = 0
parameters dxw_p33 = 0
parameters dcjs_p33 = 0
parameters dcjsws_p33 = 0
parameters dcjswgs_p33 = 0
parameters dcgdo_p33 = 0
parameters dcgso_p33 = 0
parameters dcgdl_p33 = 0
parameters dcgsl_p33 = 0
parameters dcf_p33 = 0
parameters dvth0_p33 = 0
parameters dlvth0_p33 = 0
parameters dwvsat_p33 = 0
parameters dpvth0_p33 = 0
parameters du0_p33 = 0
parameters dlu0_p33 = 0
parameters dwu0_p33 = 0
parameters dpu0_p33 = 0
parameters dvsat_p33 = 0
parameters dlvsat_p33 = 0
parameters dpvsat_p33 = 0
parameters dwvth0_p33 = 0
parameters dagidl_p33 = 0
parameters dlagidl_p33 = 0
parameters dwagidl_p33 = 0
parameters dpagidl_p33 = 0
// *3.3v mvt nmos (tt corner)
parameters dtoxe_nmvt33 = 0
parameters dxl_nmvt33 = 0
parameters dxw_nmvt33 = 0
parameters dcjs_nmvt33 = 0
parameters dcjsws_nmvt33 = 0
parameters dcjswgs_nmvt33 = 0
parameters dcgdo_nmvt33 = 0
parameters dcgdl_nmvt33 = 0
parameters dcgso_nmvt33 = 0
parameters dcgsl_nmvt33 = 0
parameters dcf_nmvt33 = 0
parameters dvth0_nmvt33 = 0
parameters dlvth0_nmvt33 = 0
parameters dwvth0_nmvt33 = 0
parameters dpvth0_nmvt33 = 0
parameters du0_nmvt33 = 0
parameters dlu0_nmvt33 = 0
parameters dwu0_nmvt33 = 0
parameters dvsat_nmvt33 = 0
parameters dlvsat_nmvt33 = 0
parameters dpvsat_nmvt33 = 0
parameters dpu0_nmvt33 = 0
parameters dwvsat_nmvt33 = 0
parameters dvoff_nmvt33 = 0
// *3.3v native mos (tt corner)
parameters dtoxe_nnt33 = 0
parameters dxl_nnt33 = 0
parameters dxw_nnt33 = 0
parameters dcjs_nnt33 = 0
parameters dcjsws_nnt33 = 0
parameters dcjswgs_nnt33 = 0
parameters dcgdo_nnt33 = 0
parameters dcgdl_nnt33 = 0
parameters dcgso_nnt33 = 0
parameters dcgsl_nnt33 = 0
parameters dcf_nnt33 = 0
parameters dvth0_nnt33 = 0
parameters dlvth0_nnt33 = 0
parameters dwvth0_nnt33 = 0
parameters dpvth0_nnt33 = 0
parameters du0_nnt33 = 0
parameters dlu0_nnt33 = 0
parameters dwu0_nnt33 = 0
parameters dvsat_nnt33 = 0
parameters dlvsat_nnt33 = 0
parameters dpvsat_nnt33 = 0
parameters dpu0_nnt33 = 0
parameters dwvsat_nnt33 = 0
parameters dvoff_nnt33 = 0
parameters sigma_mis_a = 0
parameters sigma_mis_b = 0
parameters sigma_mis_c = 0
parameters sigma_mis_d = 0
parameters sigma_mis_e = 0
parameters sigma_mis_f = 0
parameters sigma_mis_g = 0
parameters sigma_mis_h = 0
statistics {

    mismatch {

     vary sigma_mis_a dist=gauss std=1/1
     vary sigma_mis_b dist=gauss std=1/1
     vary sigma_mis_c dist=gauss std=1/1
     vary sigma_mis_d dist=gauss std=1/1
     vary sigma_mis_e dist=gauss std=1/1
     vary sigma_mis_f dist=gauss std=1/1
     vary sigma_mis_g dist=gauss std=1/1
     vary sigma_mis_h dist=gauss std=1/1

           }
      }
// *1.8v nmos (tt corner)
inline subckt n18_ckt ( d g s b )
parameters w=1e-6 l=1e-6 sa=4.48e-006 sb=4.48e-006 sd=sdr as=asr ad=adr ps=psr pd=pdr nrd=nrdr nrs=nrsr nf=1 mr=1 sca=0 scb=0 scc=0 mismod=1
parameters dmcgr = 2.7e-7
parameters dmcir = 2.7e-7
parameters sdr = 2*dmcgr
parameters adr = (nf*dmcgr+dmcir)*(w/nf)
parameters asr = (nf*dmcgr+dmcir)*(w/nf)
parameters pdr = 2*(nf*dmcgr+dmcir)+(nf+1)*(w/nf)
parameters psr = 2*(nf*dmcgr+dmcir)+(nf+1)*(w/nf)
parameters nrdr = dmcgr/nf/(w/nf)
parameters nrsr = dmcgr/nf/(w/nf)
// ******mismatch******
parameters dtoxe_n18_mis = 0+atoxe_n18*geo_fac*sigma_mis_a*mismod
parameters dvth0_n18_mis = 0+avth0_n18*geo_fac*sigma_mis_b*mismod
parameters du0_n18_mis = 0+au0_n18*geo_fac*sigma_mis_c*mismod
parameters dvsat_n18_mis = 0+avsat_n18*geo_fac*sigma_mis_d*mismod
parameters dtoxe_n18_mismatch = 0+dtoxe_n18_mis
parameters dvth0_n18_mismatch = 0+dvth0_n18_mis
parameters du0_n18_mismatch = 0+du0_n18_mis
parameters dvsat_n18_mismatch = 0+dvsat_n18_mis
parameters geo_fac = 1/sqrt(wef*lef*mr)
parameters lef = l
parameters wef = w
parameters atoxe_n18 = 1e-024
parameters avth0_n18 = 3.6e-009
parameters avsat_n18 = 1e-012
parameters au0_n18 = 1.2e-010
n18_ckt ( d g s b ) n18_ckt w=w l=l sa=sa sb=sb sd=sd as=as ad=ad ps=ps pd=pd nrd=nrd nrs=nrs sca=sca scb=scb scc=scc nf=nf m=mr
include "ms018_enhanced_v1p11_mis_spe_ig_on.mdl"
ends n18_ckt

// *1.8v pmos (tt corner)
inline subckt p18_ckt ( d g s b )
parameters w=1e-6 l=1e-6 sa=4.48e-006 sb=4.48e-006 sd=sdr as=asr ad=adr ps=psr pd=pdr nrd=nrdr nrs=nrsr nf=1 mr=1 sca=0 scb=0 scc=0 mismod=1
parameters dmcgr = 2.7e-7
parameters dmcir = 2.7e-7
parameters sdr = 2*dmcgr
parameters adr = (nf*dmcgr+dmcir)*(w/nf)
parameters asr = (nf*dmcgr+dmcir)*(w/nf)
parameters pdr = 2*(nf*dmcgr+dmcir)+(nf+1)*(w/nf)
parameters psr = 2*(nf*dmcgr+dmcir)+(nf+1)*(w/nf)
parameters nrdr = dmcgr/nf/(w/nf)
parameters nrsr = dmcgr/nf/(w/nf)
// ******mismatch******
parameters dtoxe_p18_mis = 0+atoxe_p18*geo_fac*sigma_mis_a*mismod
parameters dvth0_p18_mis = 0+avth0_p18*geo_fac*sigma_mis_b*mismod
parameters du0_p18_mis = 0+au0_p18*geo_fac*sigma_mis_c*mismod
parameters dvoff_p18_mis = 0+avoff_p18*geo_fac*sigma_mis_d*mismod
parameters dvsat_p18_mis = 0+avsat_p18*geo_fac*sigma_mis_e*mismod
parameters dtoxe_p18_mismatch = 0+dtoxe_p18_mis
parameters dvth0_p18_mismatch = 0+dvth0_p18_mis
parameters du0_p18_mismatch = 0+du0_p18_mis
parameters dvoff_p18_mismatch = 0+dvoff_p18_mis
parameters dvsat_p18_mismatch = 0+dvsat_p18_mis
parameters geo_fac = 1/sqrt(wef*lef*mr)
parameters lef = l
parameters wef = w
parameters atoxe_p18 = 1e-024
parameters avth0_p18 = 3e-009
parameters avoff_p18 = 8.28e-012
parameters au0_p18 = 3.8e-011
parameters avsat_p18 = 1e-07
p18_ckt ( d g s b ) p18_ckt w=w l=l sa=sa sb=sb sd=sd as=as ad=ad ps=ps pd=pd nrd=nrd nrs=nrs sca=sca scb=scb scc=scc nf=nf m=mr
include "ms018_enhanced_v1p11_mis_spe_ig_on.mdl"
ends p18_ckt

// *1.8v ntive nmos (tt corner)
inline subckt nnt18_ckt ( d g s b )
parameters w=1e-6 l=1e-6 sa=4.54e-006 sb=4.54e-006 sd=sdr as=asr ad=adr ps=psr pd=pdr nrd=nrdr nrs=nrsr nf=1 mr=1 mismod=1
parameters dmcgr = 3.7e-007
parameters dmcir = 2.7e-007
parameters sdr = 2*dmcgr
parameters adr = (nf*dmcgr+dmcir)*(w/nf)
parameters asr = (nf*dmcgr+dmcir)*(w/nf)
parameters pdr = 2*(nf*dmcgr+dmcir)+(nf+1)*(w/nf)
parameters psr = 2*(nf*dmcgr+dmcir)+(nf+1)*(w/nf)
parameters nrdr = dmcgr/nf/(w/nf)
parameters nrsr = dmcgr/nf/(w/nf)
parameters dtoxe_nnt18_mis = 0+atoxe_nnt18*geo_fac*sigma_mis_a*mismod
parameters dvth0_nnt18_mis = 0+avth0_nnt18*geo_fac*sigma_mis_b*mismod
parameters dvoff_nnt18_mis = 0+avoff_nnt18*geo_fac*sigma_mis_c*mismod
parameters du0_nnt18_mis = 0+au0_nnt18*geo_fac*sigma_mis_d*mismod
parameters dvsat_nnt18_mis = 0+avsat_nnt18*geo_fac*sigma_mis_e*mismod
parameters dpdiblc2_nnt18_mis = 0+apdiblc2_nnt18*geo_fac*sigma_mis_f*mismod
parameters dtoxe_nnt18_mismatch = 0+dtoxe_nnt18_mis
parameters dvth0_nnt18_mismatch = 0+dvth0_nnt18_mis
parameters du0_nnt18_mismatch = 0+du0_nnt18_mis
parameters dvsat_nnt18_mismatch = 0+dvsat_nnt18_mis
parameters dvoff_nnt18_mismatch = 0+dvoff_nnt18_mis
parameters dpdiblc2_nnt18_mismatch = 0+dpdiblc2_nnt18_mis
parameters geo_fac = 1/sqrt(wef*lef*mr)
parameters lef = l
parameters wef = w
parameters atoxe_nnt18 = 1e-022
parameters avth0_nnt18 = 2.4e-009
parameters avsat_nnt18 = 5e-004
parameters au0_nnt18 = 2.34e-010
parameters avoff_nnt18 = 4.6e-009
parameters apdiblc2_nnt18 = 3.3e-009
nnt18_ckt ( d g s b ) nnt18_ckt w=w l=l sa=sa sb=sb sd=sd as=as ad=ad ps=ps pd=pd nrd=nrd nrs=nrs nf=nf m=mr
include "ms018_enhanced_v1p11_mis_spe_ig_on.mdl"
ends nnt18_ckt

// *1.8v dnw nmos (tt corner)
inline subckt n18_dnw_ckt ( d g s b t b2 )
parameters w=1e-6 l=1e-6 sa=4.48e-006 sb=4.48e-006 sd=sdr as=asr ad=adr ps=psr pd=pdr nrd=nrdr nrs=nrsr nf=1 mr=1 sca=0 scb=0 scc=0 mismod=1
parameters dmcgr = 2.7e-7
parameters dmcir = 2.7e-7
parameters sdr = 2*dmcgr
parameters adr = (nf*dmcgr+dmcir)*(w/nf)
parameters asr = (nf*dmcgr+dmcir)*(w/nf)
parameters pdr = 2*(nf*dmcgr+dmcir)+(nf+1)*(w/nf)
parameters psr = 2*(nf*dmcgr+dmcir)+(nf+1)*(w/nf)
parameters nrdr = dmcgr/nf/(w/nf)
parameters nrsr = dmcgr/nf/(w/nf)
// ******mismatch******
parameters dtoxe_n18_dnw_mis = 0+atoxe_n18_dnw*geo_fac*sigma_mis_a*mismod
parameters dvth0_n18_dnw_mis = 0+avth0_n18_dnw*geo_fac*sigma_mis_b*mismod
parameters du0_n18_dnw_mis = 0+au0_n18_dnw*geo_fac*sigma_mis_c*mismod
parameters dvsat_n18_dnw_mis = 0+avsat_n18_dnw*geo_fac*sigma_mis_d*mismod
parameters dtoxe_n18_dnw_mismatch = dtoxe_n18_dnw+dtoxe_n18_dnw_mis
parameters dvth0_n18_dnw_mismatch = dvth0_n18_dnw+dvth0_n18_dnw_mis
parameters du0_n18_dnw_mismatch = du0_n18_dnw+du0_n18_dnw_mis
parameters dvsat_n18_dnw_mismatch = dvsat_n18_dnw+dvsat_n18_dnw_mis
parameters geo_fac = 1/sqrt(wef*lef*mr)
parameters lef = l
parameters wef = w
parameters atoxe_n18_dnw = 1e-024
parameters avth0_n18_dnw = 3.6e-009
parameters avsat_n18_dnw = 1e-012
parameters au0_n18_dnw = 1.2e-010
parameters dtoxe_n18_dnw = 0
parameters dxl_n18_dnw = 0
parameters dxw_n18_dnw = 0
parameters dcj_n18_dnw = 0
parameters dcjsw_n18_dnw = 0
parameters dcjswg_n18_dnw = 0
parameters dcgdo_n18_dnw = 0
parameters dcgdl_n18_dnw = 0
parameters dcf_n18_dnw = 0
parameters dvth0_n18_dnw = 0
parameters dlvth0_n18_dnw = 0
parameters dpvth0_n18_dnw = 0
parameters du0_n18_dnw = 0
parameters dlu0_n18_dnw = 0
parameters dpu0_n18_dnw = 0
parameters dvsat_n18_dnw = 0
parameters dlvsat_n18_dnw = 0
parameters dpvsat_n18_dnw = 0
parameters dvoff_n18_dnw = 0
parameters dwvth0_n18_dnw = 0
parameters dwu0_n18_dnw = 0
n18_dnw_ckt ( d g s b ) n18_dnw_ckt w=w l=l sa=sa sb=sb sd=sd as=as ad=ad ps=ps pd=pd nrd=nrd nrs=nrs sca=sca scb=scb scc=scc nf=nf m=mr
include "ms018_enhanced_v1p11_mis_spe_ig_on.mdl"
ends n18_dnw_ckt

// *1.8v dnw nmos (tt corner)
inline subckt n18_dnw_4t_ckt ( d g s b )
parameters w=1e-6 l=1e-6 sa=4.48e-006 sb=4.48e-006 sd=sdr as=asr ad=adr ps=psr pd=pdr nrd=nrdr nrs=nrsr nf=1 mr=1 sca=0 scb=0 scc=0 mismod=1
parameters dmcgr = 2.7e-7
parameters dmcir = 2.7e-7
parameters sdr = 2*dmcgr
parameters adr = (nf*dmcgr+dmcir)*(w/nf)
parameters asr = (nf*dmcgr+dmcir)*(w/nf)
parameters pdr = 2*(nf*dmcgr+dmcir)+(nf+1)*(w/nf)
parameters psr = 2*(nf*dmcgr+dmcir)+(nf+1)*(w/nf)
parameters nrdr = dmcgr/nf/(w/nf)
parameters nrsr = dmcgr/nf/(w/nf)
// ******mismatch******
parameters dtoxe_n18_dnw_mis = 0+atoxe_n18_dnw*geo_fac*sigma_mis_a*mismod
parameters dvth0_n18_dnw_mis = 0+avth0_n18_dnw*geo_fac*sigma_mis_b*mismod
parameters du0_n18_dnw_mis = 0+au0_n18_dnw*geo_fac*sigma_mis_c*mismod
parameters dvsat_n18_dnw_mis = 0+avsat_n18_dnw*geo_fac*sigma_mis_d*mismod
parameters dtoxe_n18_dnw_mismatch = dtoxe_n18_dnw+dtoxe_n18_dnw_mis
parameters dvth0_n18_dnw_mismatch = dvth0_n18_dnw+dvth0_n18_dnw_mis
parameters du0_n18_dnw_mismatch = du0_n18_dnw+du0_n18_dnw_mis
parameters dvsat_n18_dnw_mismatch = dvsat_n18_dnw+dvsat_n18_dnw_mis
parameters geo_fac = 1/sqrt(wef*lef*mr)
parameters lef = l
parameters wef = w
parameters atoxe_n18_dnw = 1e-024
parameters avth0_n18_dnw = 3.6e-009
parameters avsat_n18_dnw = 1e-012
parameters au0_n18_dnw = 1.2e-010
parameters dtoxe_n18_dnw = 0
parameters dxl_n18_dnw = 0
parameters dxw_n18_dnw = 0
parameters dcj_n18_dnw = 0
parameters dcjsw_n18_dnw = 0
parameters dcjswg_n18_dnw = 0
parameters dcgdo_n18_dnw = 0
parameters dcgdl_n18_dnw = 0
parameters dcf_n18_dnw = 0
parameters dvth0_n18_dnw = 0
parameters dlvth0_n18_dnw = 0
parameters dpvth0_n18_dnw = 0
parameters du0_n18_dnw = 0
parameters dlu0_n18_dnw = 0
parameters dpu0_n18_dnw = 0
parameters dvsat_n18_dnw = 0
parameters dlvsat_n18_dnw = 0
parameters dpvsat_n18_dnw = 0
parameters dvoff_n18_dnw = 0
parameters dwvth0_n18_dnw = 0
parameters dwu0_n18_dnw = 0
n18_dnw_4t_ckt ( d g s b ) n18_dnw_4t_ckt w=w l=l sa=sa sb=sb sd=sd as=as ad=ad ps=ps pd=pd nrd=nrd nrs=nrs sca=sca scb=scb scc=scc nf=nf m=mr
include "ms018_enhanced_v1p11_mis_spe_ig_on.mdl"
ends n18_dnw_4t_ckt

// *1.8v dnw pmos (tt corner)
inline subckt p18_dnw_ckt ( d g s b b2 )
parameters w=1e-6 l=1e-6 sa=4.48e-006 sb=4.48e-006 sd=sdr as=asr ad=adr ps=psr pd=pdr nrd=nrdr nrs=nrsr nf=1 mr=1 sca=0 scb=0 scc=0 mismod=1
parameters dmcgr = 2.7e-7
parameters dmcir = 2.7e-7
parameters sdr = 2*dmcgr
parameters adr = (nf*dmcgr+dmcir)*(w/nf)
parameters asr = (nf*dmcgr+dmcir)*(w/nf)
parameters pdr = 2*(nf*dmcgr+dmcir)+(nf+1)*(w/nf)
parameters psr = 2*(nf*dmcgr+dmcir)+(nf+1)*(w/nf)
parameters nrdr = dmcgr/nf/(w/nf)
parameters nrsr = dmcgr/nf/(w/nf)
// ******mismatch******
parameters dtoxe_p18_dnw_mis = 0+atoxe_p18_dnw*geo_fac*sigma_mis_a*mismod
parameters dvth0_p18_dnw_mis = 0+avth0_p18_dnw*geo_fac*sigma_mis_b*mismod
parameters du0_p18_dnw_mis = 0+au0_p18_dnw*geo_fac*sigma_mis_c*mismod
parameters dvoff_p18_dnw_mis = 0+avoff_p18_dnw*geo_fac*sigma_mis_d*mismod
parameters dvsat_p18_dnw_mis = 0+avsat_p18_dnw*geo_fac*sigma_mis_e*mismod
parameters dtoxe_p18_dnw_mismatch = dtoxe_p18_dnw+dtoxe_p18_dnw_mis
parameters dvth0_p18_dnw_mismatch = dvth0_p18_dnw+dvth0_p18_dnw_mis
parameters du0_p18_dnw_mismatch = du0_p18_dnw+du0_p18_dnw_mis
parameters dvoff_p18_dnw_mismatch = dvoff_p18_dnw+dvoff_p18_dnw_mis
parameters dvsat_p18_dnw_mismatch = dpvsat_p18_dnw+dvsat_p18_dnw_mis
parameters geo_fac = 1/sqrt(wef*lef*mr)
parameters lef = l
parameters wef = w
parameters atoxe_p18_dnw = 1e-024
parameters avth0_p18_dnw = 3e-009
parameters avoff_p18_dnw = 8.28e-012
parameters au0_p18_dnw = 3.8e-011
parameters avsat_p18_dnw = 1e-07
parameters dtoxe_p18_dnw = 0
parameters dxl_p18_dnw = 0
parameters dxw_p18_dnw = 0
parameters dcj_p18_dnw = 0
parameters dcjsw_p18_dnw = 0
parameters dcjswg_p18_dnw = 0
parameters dcgdo_p18_dnw = 0
parameters dcgdl_p18_dnw = 0
parameters dcf_p18_dnw = 0
parameters dvth0_p18_dnw = 0
parameters dlvth0_p18_dnw = 0
parameters dpvth0_p18_dnw = 0
parameters du0_p18_dnw = 0
parameters dlu0_p18_dnw = 0
parameters dpu0_p18_dnw = 0
parameters dvsat_p18_dnw = 0
parameters dlvsat_p18_dnw = 0
parameters dpvsat_p18_dnw = 0
parameters dvoff_p18_dnw = 0
parameters dwvth0_p18_dnw = 0
parameters dwu0_p18_dnw = 0
parameters dlpe0_p18_dnw = 0
parameters dminv_p18_dnw = 0
parameters dlminv_p18_dnw = 0
p18_dnw_ckt ( d g s b ) p18_dnw_ckt w=w l=l sa=sa sb=sb sd=sd as=as ad=ad ps=ps pd=pd nrd=nrd nrs=nrs sca=sca scb=scb scc=scc nf=nf m=mr
include "ms018_enhanced_v1p11_mis_spe_ig_on.mdl"
ends p18_dnw_ckt

// *1.8v pmos (tt corner)
inline subckt p18_dnw_4t_ckt ( d g s b )
parameters w=1e-6 l=1e-6 sa=4.48e-006 sb=4.48e-006 sd=sdr as=asr ad=adr ps=psr pd=pdr nrd=nrdr nrs=nrsr nf=1 mr=1 sca=0 scb=0 scc=0 mismod=1
parameters dmcgr = 2.7e-7
parameters dmcir = 2.7e-7
parameters sdr = 2*dmcgr
parameters adr = (nf*dmcgr+dmcir)*(w/nf)
parameters asr = (nf*dmcgr+dmcir)*(w/nf)
parameters pdr = 2*(nf*dmcgr+dmcir)+(nf+1)*(w/nf)
parameters psr = 2*(nf*dmcgr+dmcir)+(nf+1)*(w/nf)
parameters nrdr = dmcgr/nf/(w/nf)
parameters nrsr = dmcgr/nf/(w/nf)
// ******mismatch******
parameters dtoxe_p18_dnw_mis = 0+atoxe_p18_dnw*geo_fac*sigma_mis_a*mismod
parameters dvth0_p18_dnw_mis = 0+avth0_p18_dnw*geo_fac*sigma_mis_b*mismod
parameters du0_p18_dnw_mis = 0+au0_p18_dnw*geo_fac*sigma_mis_c*mismod
parameters dvoff_p18_dnw_mis = 0+avoff_p18_dnw*geo_fac*sigma_mis_d*mismod
parameters dvsat_p18_dnw_mis = 0+avsat_p18_dnw*geo_fac*sigma_mis_e*mismod
parameters dtoxe_p18_dnw_mismatch = dtoxe_p18_dnw+dtoxe_p18_dnw_mis
parameters dvth0_p18_dnw_mismatch = dvth0_p18_dnw+dvth0_p18_dnw_mis
parameters du0_p18_dnw_mismatch = du0_p18_dnw+du0_p18_dnw_mis
parameters dvoff_p18_dnw_mismatch = dvoff_p18_dnw+dvoff_p18_dnw_mis
parameters dvsat_p18_dnw_mismatch = dpvsat_p18_dnw+dvsat_p18_dnw_mis
parameters geo_fac = 1/sqrt(wef*lef*mr)
parameters lef = l
parameters wef = w
parameters atoxe_p18_dnw = 1e-024
parameters avth0_p18_dnw = 3e-009
parameters avoff_p18_dnw = 8.28e-012
parameters au0_p18_dnw = 3.8e-011
parameters avsat_p18_dnw = 1e-07
parameters dtoxe_p18_dnw = 0
parameters dxl_p18_dnw = 0
parameters dxw_p18_dnw = 0
parameters dcj_p18_dnw = 0
parameters dcjsw_p18_dnw = 0
parameters dcjswg_p18_dnw = 0
parameters dcgdo_p18_dnw = 0
parameters dcgdl_p18_dnw = 0
parameters dcf_p18_dnw = 0
parameters dvth0_p18_dnw = 0
parameters dlvth0_p18_dnw = 0
parameters dpvth0_p18_dnw = 0
parameters du0_p18_dnw = 0
parameters dlu0_p18_dnw = 0
parameters dpu0_p18_dnw = 0
parameters dvsat_p18_dnw = 0
parameters dlvsat_p18_dnw = 0
parameters dpvsat_p18_dnw = 0
parameters dvoff_p18_dnw = 0
parameters dwvth0_p18_dnw = 0
parameters dwu0_p18_dnw = 0
parameters dlpe0_p18_dnw = 0
parameters dminv_p18_dnw = 0
parameters dlminv_p18_dnw = 0
p18_dnw_4t_ckt ( d g s b ) p18_dnw_4t_ckt w=w l=l sa=sa sb=sb sd=sd as=as ad=ad ps=ps pd=pd nrd=nrd nrs=nrs sca=sca scb=scb scc=scc nf=nf m=mr
include "ms018_enhanced_v1p11_mis_spe_ig_on.mdl"
ends p18_dnw_4t_ckt

// *nmvt18_ckt(tt corner)
inline subckt nmvt18_ckt ( d g s b )
parameters w=1e-6 l=1e-6 sa=4.54e-6 sb=4.54e-6 sd=sdr as=asr ad=adr ps=psr pd=pdr nrd=nrdr nrs=nrsr nf=1 mr=1 sca=0 scb=0 scc=0 mismod=1
parameters dmcgr = 3.7e-7
parameters dmcir = 3.7e-7
parameters sdr = 2*dmcgr
parameters adr = (nf*dmcgr+dmcir)*(w/nf)
parameters asr = (nf*dmcgr+dmcir)*(w/nf)
parameters pdr = 2*(nf*dmcgr+dmcir)+(nf+1)*(w/nf)
parameters psr = 2*(nf*dmcgr+dmcir)+(nf+1)*(w/nf)
parameters nrdr = dmcgr/nf/(w/nf)
parameters nrsr = dmcgr/nf/(w/nf)
// ******mismatch******
parameters xlr = 1e-8
parameters xwr = 1e-8
parameters lef = l+xlr
parameters wef = w/nf+xwr
parameters geo_fac = 1/sqrt(wef*lef*nf*mr)
parameters atoxe_nmvt18 = 5e-19
parameters axl_nmvt18 = 6e-17
parameters axw_nmvt18 = 6e-17
parameters avth0_nmvt18 = 2.2e-9
parameters au0_nmvt18 = 2.4e-10
parameters avoff_nmvt18 = 1.6e-9
parameters avsat_nmvt18 = 2.5e-4
parameters aeta0_nmvt18 = 0
parameters dtoxe_nmvt18_mis = 0+atoxe_nmvt18*geo_fac*sigma_mis_a*mismod
parameters dxl_nmvt18_mis = 0+axl_nmvt18*geo_fac*sigma_mis_b*mismod
parameters dxw_nmvt18_mis = 0+axw_nmvt18*geo_fac*sigma_mis_c*mismod
parameters dvth0_nmvt18_mis = 0+avth0_nmvt18*geo_fac*sigma_mis_d*mismod
parameters du0_nmvt18_mis = 0+au0_nmvt18*geo_fac*sigma_mis_e*mismod
parameters dvoff_nmvt18_mis = 0+avoff_nmvt18*geo_fac*sigma_mis_f*mismod
parameters dvsat_nmvt18_mis = 0+avsat_nmvt18*geo_fac*sigma_mis_g*mismod
parameters deta0_nmvt18_mis = 0+aeta0_nmvt18*geo_fac*sigma_mis_h*mismod
parameters dtoxe_nmvt18_mismatch = 0+dtoxe_nmvt18_mis
parameters dxl_nmvt18_mismatch = 0+dxl_nmvt18_mis
parameters dxw_nmvt18_mismatch = 0+dxw_nmvt18_mis
parameters dvth0_nmvt18_mismatch = 0+dvth0_nmvt18_mis
parameters du0_nmvt18_mismatch = 0+du0_nmvt18_mis
parameters dvoff_nmvt18_mismatch = 0+dvoff_nmvt18_mis
parameters dvsat_nmvt18_mismatch = 0+dvsat_nmvt18_mis
parameters deta0_nmvt18_mismatch = 0+deta0_nmvt18_mis
nmvt18_ckt ( d g s b ) nmvt18_ckt w=w l=l sa=sa sb=sb sd=sd as=as ad=ad ps=ps pd=pd nrd=nrd nrs=nrs sca=sca scb=scb scc=scc nf=nf m=mr
include "ms018_enhanced_v1p11_mis_spe_ig_on.mdl"
ends nmvt18_ckt

// *pmvt18_ckt(tt corner)
inline subckt pmvt18_ckt ( d g s b )
parameters w=1e-6 l=1e-6 sa=4.54e-6 sb=4.54e-6 sd=sdr as=asr ad=adr ps=psr pd=pdr nrd=nrdr nrs=nrsr nf=1 mr=1 sca=0 scb=0 scc=0 mismod=1
parameters dmcgr = 3.7e-7
parameters dmcir = 3.7e-7
parameters sdr = 2*dmcgr
parameters adr = (nf*dmcgr+dmcir)*(w/nf)
parameters asr = (nf*dmcgr+dmcir)*(w/nf)
parameters pdr = 2*(nf*dmcgr+dmcir)+(nf+1)*(w/nf)
parameters psr = 2*(nf*dmcgr+dmcir)+(nf+1)*(w/nf)
parameters nrdr = dmcgr/nf/(w/nf)
parameters nrsr = dmcgr/nf/(w/nf)
// ******mismatch******
parameters xlr = 1e-8
parameters xwr = 1e-8
parameters lef = l+xlr
parameters wef = w/nf+xwr
parameters geo_fac = 1/sqrt(wef*lef*nf*mr)
parameters atoxe_p18mvt = 5e-19
parameters axl_p18mvt = 6e-17
parameters axw_p18mvt = 6e-17
parameters avth0_p18mvt = -3.3e-9
parameters au0_p18mvt = 4.5e-11
parameters avoff_p18mvt = 0
parameters avsat_p18mvt = 0
parameters aeta0_p18mvt = 0
parameters dtoxe_pmvt18_mis = 0+atoxe_p18mvt*geo_fac*sigma_mis_a*mismod
parameters dxl_pmvt18_mis = 0+axl_p18mvt*geo_fac*sigma_mis_b*mismod
parameters dxw_pmvt18_mis = 0+axw_p18mvt*geo_fac*sigma_mis_c*mismod
parameters dvth0_pmvt18_mis = 0+avth0_p18mvt*geo_fac*sigma_mis_d*mismod
parameters du0_pmvt18_mis = 0+au0_p18mvt*geo_fac*sigma_mis_e*mismod
parameters dvoff_pmvt18_mis = 0+avoff_p18mvt*geo_fac*sigma_mis_f*mismod
parameters dvsat_pmvt18_mis = 0+avsat_p18mvt*geo_fac*sigma_mis_g*mismod
parameters deta0_pmvt18_mis = 0+aeta0_p18mvt*geo_fac*sigma_mis_h*mismod
parameters dtoxe_pmvt18_mismatch = 0+dtoxe_pmvt18_mis
parameters dxl_pmvt18_mismatch = 0+dxl_pmvt18_mis
parameters dxw_pmvt18_mismatch = 0+dxw_pmvt18_mis
parameters dvth0_pmvt18_mismatch = 0+dvth0_pmvt18_mis
parameters du0_pmvt18_mismatch = 0+du0_pmvt18_mis
parameters dvoff_pmvt18_mismatch = 0+dvoff_pmvt18_mis
parameters dvsat_pmvt18_mismatch = 0+dvsat_pmvt18_mis
parameters deta0_pmvt18_mismatch = 0+deta0_pmvt18_mis
pmvt18_ckt ( d g s b ) pmvt18_ckt w=w l=l sa=sa sb=sb sd=sd as=as ad=ad ps=ps pd=pd nrd=nrd nrs=nrs sca=sca scb=scb scc=scc nf=nf m=mr
include "ms018_enhanced_v1p11_mis_spe_ig_on.mdl"
ends pmvt18_ckt

// *n33_ckt(tt corner)
inline subckt n33_ckt ( d g s b )
parameters w=1e-6 l=1e-6 sa=5.33e-6 sb=5.33e-6 sd=sdr as=asr ad=adr ps=psr pd=pdr nrd=nrdr nrs=nrsr nf=1 mr=1 sca=0 scb=0 scc=0 mismod=1
parameters dmcgr = 2.7e-007
parameters dmcir = 2.7e-007
parameters sdr = 2*dmcgr
parameters adr = (nf*dmcgr+dmcir)*(w/nf)
parameters asr = (nf*dmcgr+dmcir)*(w/nf)
parameters pdr = 2*(nf*dmcgr+dmcir)+(nf+1)*(w/nf)
parameters psr = 2*(nf*dmcgr+dmcir)+(nf+1)*(w/nf)
parameters nrdr = dmcgr/nf/(w/nf)
parameters nrsr = dmcgr/nf/(w/nf)
// ******mismatch******
parameters xlr = 1e-8
parameters xwr = 1e-8
parameters lef = l+xlr
parameters wef = w/nf+xwr
parameters geo_fac = 1/sqrt(wef*lef*nf*mr)
parameters atoxe_n33 = 5e-19
parameters axl_n33 = 6e-17
parameters axw_n33 = 6e-17
parameters avth0_n33 = 8e-9
parameters au0_n33 = 1.55e-10
parameters avoff_n33 = 7e-9
parameters avsat_n33 = 0
parameters dtoxe_n33_mis = dtoxe_n33+atoxe_n33*geo_fac*sigma_mis_a*mismod
parameters dxl_n33_mis = dxl_n33+axl_n33*geo_fac*sigma_mis_b*mismod
parameters dxw_n33_mis = dxw_n33+axw_n33*geo_fac*sigma_mis_c*mismod
parameters dvth0_n33_mis = dvth0_n33+avth0_n33*geo_fac*sigma_mis_d*mismod
parameters du0_n33_mis = du0_n33+au0_n33*geo_fac*sigma_mis_e*mismod
parameters dvoff_n33_mis = 0+avoff_n33*geo_fac*sigma_mis_f*mismod
parameters dvsat_n33_mis = dvsat_n33+avsat_n33*geo_fac*sigma_mis_g*mismod
parameters dtoxe_n33_mismatch = 0+dtoxe_n33_mis
parameters dxl_n33_mismatch = 0+dxl_n33_mis
parameters dxw_n33_mismatch = 0+dxw_n33_mis
parameters dvth0_n33_mismatch = 0+dvth0_n33_mis
parameters du0_n33_mismatch = 0+du0_n33_mis
parameters dvoff_n33_mismatch = 0+dvoff_n33_mis
parameters dvsat_n33_mismatch = 0+dvsat_n33_mis
n33_ckt ( d g s b ) n33_ckt w=w l=l sa=sa sb=sb sd=sd as=as ad=ad ps=ps pd=pd nrd=nrd nrs=nrs sca=sca scb=scb scc=scc nf=nf m=mr
include "ms018_enhanced_v1p11_mis_spe_ig_on.mdl"
ends n33_ckt

// *p33_ckt(tt corner)
inline subckt p33_ckt ( d g s b )
parameters w=1e-6 l=1e-6 sa=5.33e-6 sb=5.33e-6 sd=sdr as=asr ad=adr ps=psr pd=pdr nrd=nrdr nrs=nrsr nf=1 mr=1 sca=0 scb=0 scc=0 mismod=1
parameters dmcgr = 2.7e-007
parameters dmcir = 2.7e-007
parameters sdr = 2*dmcgr
parameters adr = (nf*dmcgr+dmcir)*(w/nf)
parameters asr = (nf*dmcgr+dmcir)*(w/nf)
parameters pdr = 2*(nf*dmcgr+dmcir)+(nf+1)*(w/nf)
parameters psr = 2*(nf*dmcgr+dmcir)+(nf+1)*(w/nf)
parameters nrdr = dmcgr/nf/(w/nf)
parameters nrsr = dmcgr/nf/(w/nf)
// ******mismatch******
parameters xlr = 1e-8
parameters xwr = 1e-8
parameters lef = l+xlr
parameters wef = w/nf+xwr
parameters geo_fac = 1/sqrt(wef*lef*nf*mr)
parameters atoxe_p33 = 5e-19
parameters axl_p33 = 6e-17
parameters axw_p33 = 6e-17
parameters avth0_p33 = 3.30e-9
parameters au0_p33 = 3.65e-11
parameters avoff_p33 = -2.6e-9
parameters aeta0_p33 = 0
parameters avsat_p33 = -1.65e-3
parameters dtoxe_p33_mis = dtoxe_p33+atoxe_p33*geo_fac*sigma_mis_a*mismod
parameters dxl_p33_mis = dxl_p33+axl_p33*geo_fac*sigma_mis_b*mismod
parameters dxw_p33_mis = dxw_p33+axw_p33*geo_fac*sigma_mis_c*mismod
parameters dvth0_p33_mis = dvth0_p33+avth0_p33*geo_fac*sigma_mis_d*mismod
parameters du0_p33_mis = du0_p33+au0_p33*geo_fac*sigma_mis_e*mismod
parameters dvoff_p33_mis = 0+avoff_p33*geo_fac*sigma_mis_f*mismod
parameters dvsat_p33_mis = dvsat_p33+avsat_p33*geo_fac*sigma_mis_g*mismod
parameters deta0_p33_mis = 0+aeta0_p33*geo_fac*sigma_mis_h*mismod
parameters dtoxe_p33_mismatch = 0+dtoxe_p33_mis
parameters dxl_p33_mismatch = 0+dxl_p33_mis