//* This file contains 1.8V, 3.3V mos, resistor and mim corner model parameters.
//* Five corners are supported: TT, FF, SS, SNFP, and FNSP.
//* Monte Carlo statistical model is supported: mos_mc,MIM_MC
//* This file should be used with the model parameter file 'mse018_v1p11_mis_rf_spe.ckt', 'mse018_v1p11_rf_res_spe.ckt' , 'mse018_v1p11_rf_mim_spe.ckt','mse018_v1p11_rf_var_spe.ckt', 'mse018_v1p11_ind_rf_spe.ckt', 'mse018_v1p11_ind_rf_psub_spe.ckt', 'mse018_v1p11_diff_ind_rf_spe.ckt', 'mse018_v1p11_diff_ind_rf_psub_spe.ckt', 'mse018_v1p11_diff_ind_3t_rf_spe.ckt', 'mse018_v1p11_diff_ind_3t_rf_psub_spe.ckt'.
//* No part of this file can be released without the consent of SMIC.

simulator lang=spectre  insensitive=yes

library mse018_v1p11_rf

section tt
setoption1 options gmin=1e-14

//
parameters sigma_mis_a_rf = 0
parameters sigma_mis_b_rf = 0
parameters sigma_mis_c_rf = 0
parameters sigma_mis_d_rf = 0
parameters sigma_mis_e_rf = 0
parameters sigma_mis_f_rf = 0
parameters sigma_mis_g_rf = 0
parameters sigma_mis_h_rf = 0
statistics {

    mismatch {

     vary sigma_mis_a_rf dist=gauss std=1/1
     vary sigma_mis_b_rf dist=gauss std=1/1
     vary sigma_mis_c_rf dist=gauss std=1/1
     vary sigma_mis_d_rf dist=gauss std=1/1
     vary sigma_mis_e_rf dist=gauss std=1/1
     vary sigma_mis_f_rf dist=gauss std=1/1
     vary sigma_mis_g_rf dist=gauss std=1/1
     vary sigma_mis_h_rf dist=gauss std=1/1

           }
      }

// *1.8v nmos (tt corner)
// * 1=drain,2=gate,3=source,4=bulk
inline subckt n18_ckt_rf (1 2 3 4)
parameters wr=2.5e-6 lr=0.18e-6 nf=16 sar=1.04e-006 sbr=1.04e-006 sdr=0.54e-6 nrdr=0.00675 nrsr=0.00915625 mr=1 scar=0 scbr=0 sccr=0 mismod=1
parameters w=(wr*nf) l=lr 
// *1.8v core nmos (tt corner)
parameters dtoxe_n18_rf     = 0             
parameters dxl_n18_rf       = 0            
parameters dxw_n18_rf       = 0 
parameters dcj_n18_rf       = 0             
parameters dcjsw_n18_rf     = 0            
parameters dcjswg_n18_rf    = 0
parameters dcgdo_n18_rf     = 0             
parameters dcgdl_n18_rf     = 0            
parameters dcf_n18_rf       = 0
parameters dvth0_n18_rf     = 0             
parameters dlvth0_n18_rf    = 0            
parameters dpvth0_n18_rf    = 0            
parameters du0_n18_rf       = 0             
parameters dlu0_n18_rf      = 0            
parameters dpu0_n18_rf      = 0  
parameters dvsat_n18_rf     = 0             
parameters dlvsat_n18_rf    = 0            
parameters dpvsat_n18_rf    = 0            
parameters dvoff_n18_rf     = 0             
parameters dwvth0_n18_rf    = 0            
parameters dwu0_n18_rf      = 0
    
parameters dcgdext_n18_rf   = 0
parameters dcgsext_n18_rf   = 0
parameters drg_n18_rf       = 0
parameters drshg_n18_rf     = 0

// ******mismatch******
parameters dtoxe_n18_rf_mis     = 0+atoxe_n18_rf*geo_fac*sigma_mis_a_rf*mismod
parameters dvth0_n18_rf_mis     = 0+avth0_n18_rf*geo_fac*sigma_mis_b_rf*mismod
parameters du0_n18_rf_mis       = 0+au0_n18_rf*geo_fac*sigma_mis_c_rf*mismod
parameters dvsat_n18_rf_mis     = 0+avsat_n18_rf*geo_fac*sigma_mis_d_rf*mismod
parameters dtoxe_n18_rf_mismatch         = 0+dtoxe_n18_rf_mis               
parameters dvth0_n18_rf_mismatch         = 0+dvth0_n18_rf_mis  
parameters du0_n18_rf_mismatch           = 0+du0_n18_rf_mis               
parameters dvsat_n18_rf_mismatch         = 0+dvsat_n18_rf_mis  
parameters geo_fac=1/sqrt(wef*lef*mr)
parameters lef=l
parameters wef=w
parameters atoxe_n18_rf=1e-024
parameters avth0_n18_rf=3.6e-009
parameters avsat_n18_rf = 1e-012
parameters au0_n18_rf   = 1.2e-010
parameters tc1r = 3.00e-03
parameters tc2r = 9.75e-08
parameters tcoef_temper = 1.0+(temp-25.0)*(tc1r+tc2r*(temp-25.0))
parameters rshg_n18_rf=((6.229+drshg_n18_rf)*tcoef_temper)

n18_ckt_rf (1 2 3 4) n18_ckt_rf_r wrr=wr lrr=lr sarr=sar sbrr=sbr sdrr=sdr nrdrr=nrdr nrsrr=nrsr scarr=scar scbrr=scbr sccrr=sccr nfr=nf mrr=mr

include "mse018_v1p11_mis_rf_spe.ckt"
ends n18_ckt_rf

// *1.8v nmos in dnw(tt corner)
// * 1=drain,2=gate,3=source,4=bulk
inline subckt dnw18_ckt_rf (1 2 3 4 )
parameters wr=2.5e-6 lr=0.18e-6 nf=16 sar=1.04e-006 sbr=1.04e-006 sdr=0.54e-6 nrdr=0.00675 nrsr=0.00915625 mr=1 scar=0 scbr=0 sccr=0 mismod=1 
parameters w=(wr*nf) l=lr 
// *1.8v core nmos (tt corner)
parameters dtoxe_n18_rf     = 0             
parameters dxl_n18_rf       = 0            
parameters dxw_n18_rf       = 0 
parameters dcj_n18_rf       = 0             
parameters dcjsw_n18_rf     = 0            
parameters dcjswg_n18_rf    = 0
parameters dcgdo_n18_rf     = 0             
parameters dcgdl_n18_rf     = 0            
parameters dcf_n18_rf       = 0
parameters dvth0_n18_rf     = 0             
parameters dlvth0_n18_rf    = 0            
parameters dpvth0_n18_rf    = 0            
parameters du0_n18_rf       = 0             
parameters dlu0_n18_rf      = 0            
parameters dpu0_n18_rf      = 0  
parameters dvsat_n18_rf     = 0             
parameters dlvsat_n18_rf    = 0            
parameters dpvsat_n18_rf    = 0            
parameters dvoff_n18_rf     = 0             
parameters dwvth0_n18_rf    = 0            
parameters dwu0_n18_rf      = 0
    
parameters dcgdext_n18_rf   = 0
parameters dcgsext_n18_rf   = 0
parameters drg_n18_rf       = 0
parameters drshg_n18_rf     = 0

// ******mismatch******
parameters dtoxe_n18_rf_mis     = 0+atoxe_n18_rf*geo_fac*sigma_mis_a_rf*mismod
parameters dvth0_n18_rf_mis     = 0+avth0_n18_rf*geo_fac*sigma_mis_b_rf*mismod
parameters du0_n18_rf_mis       = 0+au0_n18_rf*geo_fac*sigma_mis_c_rf*mismod
parameters dvsat_n18_rf_mis     = 0+avsat_n18_rf*geo_fac*sigma_mis_d_rf*mismod
parameters dtoxe_n18_rf_mismatch         = 0+dtoxe_n18_rf_mis               
parameters dvth0_n18_rf_mismatch         = 0+dvth0_n18_rf_mis  
parameters du0_n18_rf_mismatch           = 0+du0_n18_rf_mis               
parameters dvsat_n18_rf_mismatch         = 0+dvsat_n18_rf_mis  
parameters geo_fac=1/sqrt(wef*lef*mr)
parameters lef=l
parameters wef=w
parameters atoxe_n18_rf=1e-024
parameters avth0_n18_rf=3.6e-009
parameters avsat_n18_rf = 1e-012
parameters au0_n18_rf   = 1.2e-010
parameters tc1r = 3.00e-03
parameters tc2r = 9.75e-08
parameters tcoef_temper = 1.0+(temp-25.0)*(tc1r+tc2r*(temp-25.0))
parameters rshg_n18_rf=((6.229+drshg_n18_rf)*tcoef_temper)

dnw18_ckt_rf (1 2 3 4 ) dnw18_ckt_rf_r wrr=wr lrr=lr sarr=sar sbrr=sbr sdrr=sdr nrdrr=nrdr nrsrr=nrsr scarr=scar scbrr=scbr sccrr=sccr nfr=nf mrr=mr 

include "mse018_v1p11_mis_rf_spe.ckt"
ends dnw18_ckt_rf


// *1.8v nmos in dnw(tt corner)
// * 1=drain,2=gate,3=source,4=bulk
inline subckt dnw18_6t_ckt_rf (1 2 3 4 5 6)
parameters wr=2.5e-6 lr=0.18e-6 nf=16 sar=1.04e-006 sbr=1.04e-006 sdr=0.54e-6 nrdr=0.00675 nrsr=0.00915625 mr=1 scar=0 scbr=0 sccr=0 mismod=1 arpw=162.01e-12 pjpw=55.12e-6 ardnw=190.57e-12 pjdnw=59.12e-6
parameters w=(wr*nf) l=lr 
// *1.8v core nmos (tt corner)
parameters dtoxe_n18_rf     = 0             
parameters dxl_n18_rf       = 0            
parameters dxw_n18_rf       = 0 
parameters dcj_n18_rf       = 0             
parameters dcjsw_n18_rf     = 0            
parameters dcjswg_n18_rf    = 0
parameters dcgdo_n18_rf     = 0             
parameters dcgdl_n18_rf     = 0            
parameters dcf_n18_rf       = 0
parameters dvth0_n18_rf     = 0             
parameters dlvth0_n18_rf    = 0            
parameters dpvth0_n18_rf    = 0            
parameters du0_n18_rf       = 0             
parameters dlu0_n18_rf      = 0            
parameters dpu0_n18_rf      = 0  
parameters dvsat_n18_rf     = 0             
parameters dlvsat_n18_rf    = 0            
parameters dpvsat_n18_rf    = 0            
parameters dvoff_n18_rf     = 0             
parameters dwvth0_n18_rf    = 0            
parameters dwu0_n18_rf      = 0
    
parameters dcgdext_n18_rf   = 0
parameters dcgsext_n18_rf   = 0
parameters drg_n18_rf       = 0
parameters drshg_n18_rf     = 0

parameters dcj_diobpw_rf    = 0.00           
parameters dcjsw_diobpw_rf  = 0.00
parameters dcj_dnwdio_rf    = 0.00           
parameters dcjsw_dnwdio_rf  = 0.00
// ******mismatch******
parameters dtoxe_n18_rf_mis     = 0+atoxe_n18_rf*geo_fac*sigma_mis_a_rf*mismod
parameters dvth0_n18_rf_mis     = 0+avth0_n18_rf*geo_fac*sigma_mis_b_rf*mismod
parameters du0_n18_rf_mis       = 0+au0_n18_rf*geo_fac*sigma_mis_c_rf*mismod
parameters dvsat_n18_rf_mis     = 0+avsat_n18_rf*geo_fac*sigma_mis_d_rf*mismod
parameters dtoxe_n18_rf_mismatch         = 0+dtoxe_n18_rf_mis               
parameters dvth0_n18_rf_mismatch         = 0+dvth0_n18_rf_mis  
parameters du0_n18_rf_mismatch           = 0+du0_n18_rf_mis               
parameters dvsat_n18_rf_mismatch         = 0+dvsat_n18_rf_mis  
parameters geo_fac=1/sqrt(wef*lef*mr)
parameters lef=l
parameters wef=w
parameters atoxe_n18_rf=1e-024
parameters avth0_n18_rf=3.6e-009
parameters avsat_n18_rf = 1e-012
parameters au0_n18_rf   = 1.2e-010
parameters tc1r = 3.00e-03
parameters tc2r = 9.75e-08
parameters tcoef_temper = 1.0+(temp-25.0)*(tc1r+tc2r*(temp-25.0))
parameters rshg_n18_rf=((6.229+drshg_n18_rf)*tcoef_temper)

dnw18_6t_ckt_rf (1 2 3 4 5 6) dnw18_6t_ckt_rf_r wrr=wr lrr=lr sarr=sar sbrr=sbr sdrr=sdr nrdrr=nrdr nrsrr=nrsr scarr=scar scbrr=scbr sccrr=sccr nfr=nf mrr=mr arpwr=arpw pjpwr=pjpw ardnwr=ardnw pjdnwr=pjdnw 

include "mse018_v1p11_mis_rf_spe.ckt"
ends dnw18_6t_ckt_rf

// *1.8v pmos (tt corner)
// * 1=drain,2=gate,3=source,4=bulk
inline subckt p18_ckt_rf (1 2 3 4)
parameters wr=1e-6 lr=1e-6 nf=1 sar=1.04e-006 sbr=1.04e-006 sdr=0.54e-6 nrdr=0.001 nrsr=0.001 mr=1 scar=0 scbr=0 sccr=0 mismod=1
parameters w=(wr*nf) l=lr 
// *1.8v core pmos (tt corner)
parameters dtoxe_p18_rf     = 0            
parameters dxl_p18_rf       = 0            
parameters dxw_p18_rf       = 0
parameters dcj_p18_rf       = 0            
parameters dcjsw_p18_rf     = 0            
parameters dcjswg_p18_rf    = 0
parameters dcgdo_p18_rf     = 0            
parameters dcgdl_p18_rf     = 0            
parameters dcf_p18_rf       = 0
parameters dvth0_p18_rf     = 0            
parameters dlvth0_p18_rf    = 0            
parameters dpvth0_p18_rf    = 0
parameters du0_p18_rf       = 0            
parameters dlu0_p18_rf      = 0            
parameters dpu0_p18_rf      = 0
parameters dvsat_p18_rf     = 0            
parameters dlvsat_p18_rf    = 0            
parameters dpvsat_p18_rf    = 0
parameters dvoff_p18_rf     = 0            
parameters dwvth0_p18_rf    = 0            
parameters dwu0_p18_rf      = 0
parameters dlpe0_p18_rf     = 0            
parameters dminv_p18_rf     = 0            
parameters dlminv_p18_rf    = 0
// ******mismatch******
parameters dtoxe_p18_mis                 = 0+atoxe_p18_rf*geo_fac*sigma_mis_a_rf*mismod
parameters dvth0_p18_mis                 = 0+avth0_p18_rf*geo_fac*sigma_mis_b_rf*mismod
parameters du0_p18_mis                   = 0+au0_p18_rf*geo_fac*sigma_mis_c_rf*mismod
parameters dvoff_p18_mis                 = 0+avoff_p18_rf*geo_fac*sigma_mis_d_rf*mismod
parameters dvsat_p18_mis                 = 0+avsat_p18_rf*geo_fac*sigma_mis_e_rf*mismod
parameters dtoxe_p18_mismatch_rf         = 0+dtoxe_p18_mis
parameters dvth0_p18_mismatch_rf         = 0+dvth0_p18_mis
parameters du0_p18_mismatch_rf           = 0+du0_p18_mis
parameters dvoff_p18_mismatch_rf         = 0+dvoff_p18_mis
parameters dvsat_p18_mismatch_rf         = 0+dvsat_p18_mis
parameters geo_fac=1/sqrt(wef*lef*mr)
parameters lef=l
parameters wef=w
parameters atoxe_p18_rf= 1e-024
parameters avth0_p18_rf= 3e-009
parameters avoff_p18_rf = 8.28e-012
parameters au0_p18_rf   = 3.8e-011
parameters avsat_p18_rf = 1e-07

parameters dcj_pdio18_rf = 0
parameters dcjp_pdio18_rf = 0
parameters dcgdext_p18_rf = 0
parameters dcgsext_p18_rf = 0
parameters drg_p18_rf = 0
parameters drshg_p18_rf = 0

parameters tc1r = 3.00e-03
parameters tc2r = 2.76e-07
parameters tcoef_temper = 1.0+(temp-25.0)*(tc1r+tc2r*(temp-25.0))
parameters rshg_p18_rf=((7.196+drshg_p18_rf)*tcoef_temper)
p18_ckt_rf (1 2 3 4) p18_ckt_rf_r wrr=wr lrr=lr sarr=sar sbrr=sbr sdrr=sdr nrdrr=nrdr nrsrr=nrsr scarr=scar scbrr=scbr sccrr=sccr nfr=nf mrr=mr

include "mse018_v1p11_mis_rf_spe.ckt"
ends p18_ckt_rf

// *1.8v pmos (tt corner)
// * 1=drain,2=gate,3=source,4=bulk,5=psub
inline subckt p18_5t_ckt_rf (1 2 3 4 5)
parameters wr=1e-6 lr=1e-6 nf=1 sar=1.04e-006 sbr=1.04e-006 sdr=0.54e-6 nrdr=0.001 nrsr=0.001 mr=1 scar=0 scbr=0 sccr=0 mismod=1 arnw=1e-12 pjnw=4e-6 
parameters w=(wr*nf) l=lr 
// *1.8v core pmos (tt corner)
parameters dtoxe_p18_rf     = 0            
parameters dxl_p18_rf       = 0            
parameters dxw_p18_rf       = 0
parameters dcj_p18_rf       = 0            
parameters dcjsw_p18_rf     = 0            
parameters dcjswg_p18_rf    = 0
parameters dcgdo_p18_rf     = 0            
parameters dcgdl_p18_rf     = 0            
parameters dcf_p18_rf       = 0
parameters dvth0_p18_rf     = 0            
parameters dlvth0_p18_rf    = 0            
parameters dpvth0_p18_rf    = 0
parameters du0_p18_rf       = 0            
parameters dlu0_p18_rf      = 0            
parameters dpu0_p18_rf      = 0
parameters dvsat_p18_rf     = 0            
parameters dlvsat_p18_rf    = 0            
parameters dpvsat_p18_rf    = 0
parameters dvoff_p18_rf     = 0            
parameters dwvth0_p18_rf    = 0            
parameters dwu0_p18_rf      = 0
parameters dlpe0_p18_rf     = 0            
parameters dminv_p18_rf     = 0            
parameters dlminv_p18_rf    = 0
// ******mismatch******
parameters dtoxe_p18_mis                 = 0+atoxe_p18_rf*geo_fac*sigma_mis_a_rf*mismod
parameters dvth0_p18_mis                 = 0+avth0_p18_rf*geo_fac*sigma_mis_b_rf*mismod
parameters du0_p18_mis                   = 0+au0_p18_rf*geo_fac*sigma_mis_c_rf*mismod
parameters dvoff_p18_mis                 = 0+avoff_p18_rf*geo_fac*sigma_mis_d_rf*mismod
parameters dvsat_p18_mis                 = 0+avsat_p18_rf*geo_fac*sigma_mis_e_rf*mismod
parameters dtoxe_p18_mismatch_rf         = 0+dtoxe_p18_mis
parameters dvth0_p18_mismatch_rf         = 0+dvth0_p18_mis
parameters du0_p18_mismatch_rf           = 0+du0_p18_mis
parameters dvoff_p18_mismatch_rf         = 0+dvoff_p18_mis
parameters dvsat_p18_mismatch_rf         = 0+dvsat_p18_mis
parameters geo_fac=1/sqrt(wef*lef*mr)
parameters lef=l
parameters wef=w
parameters atoxe_p18_rf= 1e-024
parameters avth0_p18_rf= 3e-009
parameters avoff_p18_rf = 8.28e-012
parameters au0_p18_rf   = 3.8e-011
parameters avsat_p18_rf = 1e-07

parameters dcj_pdio18_rf = 0
parameters dcjp_pdio18_rf = 0
parameters dcgdext_p18_rf = 0
parameters dcgsext_p18_rf = 0
parameters drg_p18_rf = 0
parameters drshg_p18_rf = 0
parameters dcj_nwdio_rf = 0
parameters dcjp_nwdio_rf = 0
parameters tc1r = 3.00e-03
parameters tc2r = 2.76e-07
parameters tcoef_temper = 1.0+(temp-25.0)*(tc1r+tc2r*(temp-25.0))
parameters rshg_p18_rf=((7.196+drshg_p18_rf)*tcoef_temper)

p18_5t_ckt_rf (1 2 3 4 5) p18_5t_ckt_rf_r wrr=wr lrr=lr sarr=sar sbrr=sbr sdrr=sdr nrdrr=nrdr nrsrr=nrsr scarr=scar scbrr=scbr sccrr=sccr nfr=nf mrr=mr arnwr=arnw pjnwr=pjnw

include "mse018_v1p11_mis_rf_spe.ckt"
ends p18_5t_ckt_rf

// *3.3v nmos (tt corner)
// * 1=drain,2=gate,3=source,4=bulk
inline subckt n33_ckt_rf (1 2 3 4)
parameters wr=1e-6 lr=1e-6 nf=1 sar=1.21e-006 sbr=1.21e-006 sdr=0.54e-6 nrdr=0.001 nrsr=0.001 mr=1 scar=0 scbr=0 sccr=0 mismod=1
parameters w=(wr*nf) l=lr 
// *3.3v core nmos (tt corner)
parameters dtoxe_n33_rf    = 0           
parameters dxl_n33_rf      = 0            
parameters dxw_n33_rf      = 0              
parameters dcjs_n33_rf     = 0           
parameters dcjsws_n33_rf   = 0            
parameters dcjswgs_n33_rf  = 0           
parameters dcgdo_n33_rf    = 0           
parameters dcgdl_n33_rf    = 0            
parameters dcgso_n33_rf    = 0             
parameters dcgsl_n33_rf    = 0           
parameters dcf_n33_rf      = 0            
parameters dvth0_n33_rf    = 0             
parameters dlvth0_n33_rf   = 0           
parameters dwvth0_n33_rf   = 0            
parameters dpvth0_n33_rf   = 0            
parameters du0_n33_rf      = 0           
parameters dlu0_n33_rf     = 0            
parameters dwu0_n33_rf     = 0              
parameters dpu0_n33_rf     = 0           
parameters dvsat_n33_rf    = 0            
parameters dlvsat_n33_rf   = 0            
parameters dwvsat_n33_rf   = 0           
parameters dpvsat_n33_rf   = 0            
parameters djtsswgs_n33_rf = 0          
parameters djtsswgd_n33_rf = 0           
parameters dlagidl_n33_rf  = 0            
parameters dpagidl_n33_rf  = 0

parameters drshg_n33_rf    = 0
parameters drg_n33_rf      = 0
parameters dcgdext_n33_rf  = 0
parameters dcgsext_n33_rf  = 0
//*ndio33_rf(tt corner)
parameters dcj_ndio33_rf = 0   
parameters dcjsw_ndio33_rf = 0 

// ******mismatch******
parameters dtoxe_n33_mis_rf       = dtoxe_n33_rf+atoxe_n33_rf*geo_fac*sigma_mis_a_rf*mismod
parameters dxl_n33_mis_rf         = dxl_n33_rf+axl_n33_rf*geo_fac*sigma_mis_b_rf*mismod
parameters dxw_n33_mis_rf         = dxw_n33_rf+axw_n33_rf*geo_fac*sigma_mis_c_rf*mismod
parameters dvth0_n33_mis_rf       = dvth0_n33_rf+avth0_n33_rf*geo_fac*sigma_mis_d_rf*mismod
parameters du0_n33_mis_rf         = du0_n33_rf+au0_n33_rf*geo_fac*sigma_mis_e_rf*mismod
parameters dvoff_n33_mis_rf       = 0+avoff_n33_rf*geo_fac*sigma_mis_f_rf*mismod
parameters dvsat_n33_mis_rf       = dvsat_n33_rf+avsat_n33_rf*geo_fac*sigma_mis_g_rf*mismod
           
parameters dtoxe_n33_mismatch_rf  = 0+dtoxe_n33_mis_rf
parameters dxl_n33_mismatch_rf    = 0+dxl_n33_mis_rf
parameters dxw_n33_mismatch_rf    = 0+dxw_n33_mis_rf
parameters dvth0_n33_mismatch_rf  = 0+dvth0_n33_mis_rf
parameters du0_n33_mismatch_rf    = 0+du0_n33_mis_rf
parameters dvoff_n33_mismatch_rf  = 0+dvoff_n33_mis_rf
parameters dvsat_n33_mismatch_rf  = 0+dvsat_n33_mis_rf
           
parameters xlr = 1E-8                    
parameters xwr = 1E-8         
parameters lef = l+xlr                
parameters wef = w/nf+xwr             
parameters geo_fac = 1/sqrt(wef*lef*nf*mr) 
parameters atoxe_n33_rf = 5E-19             
parameters axl_n33_rf = 6E-17              
parameters axw_n33_rf = 6E-17              
parameters avth0_n33_rf = 8E-9            
parameters au0_n33_rf = 1.55E-10          
parameters avoff_n33_rf = 7e-9             
parameters avsat_n33_rf = 0
parameters tc1r = 3.00e-03
parameters tc2r = 9.75e-08
parameters tcoef_temper = 1.0+(temp-25.0)*(tc1r+tc2r*(temp-25.0))
parameters rshg_n33_rf=((6.229+drshg_n33_rf)*tcoef_temper)

n33_ckt_rf (1 2 3 4) n33_ckt_rf_r wrr=wr lrr=lr sarr=sar sbrr=sbr sdrr=sdr nrdrr=nrdr nrsrr=nrsr scarr=scar scbrr=scbr sccrr=sccr nfr=nf mrr=mr

include "mse018_v1p11_mis_rf_spe.ckt"
ends n33_ckt_rf

// *3.3v nmos in dnw with 4 ports(tt corner)
// * 1=drain,2=gate,3=source,4=bulk
inline subckt dnw33_ckt_rf (1 2 3 4)
parameters wr=1e-6 lr=1e-6 nf=1 sar=1.21e-006 sbr=1.21e-006 sdr=0.54e-6 nrdr=0.001 nrsr=0.001 mr=1 scar=0 scbr=0 sccr=0 mismod=1
parameters w=(wr*nf) l=lr 
// *3.3v core nmos (tt corner)
parameters dtoxe_n33_rf    = 0           
parameters dxl_n33_rf      = 0            
parameters dxw_n33_rf      = 0              
parameters dcjs_n33_rf     = 0           
parameters dcjsws_n33_rf   = 0            
parameters dcjswgs_n33_rf  = 0           
parameters dcgdo_n33_rf    = 0           
parameters dcgdl_n33_rf    = 0            
parameters dcgso_n33_rf    = 0             
parameters dcgsl_n33_rf    = 0           
parameters dcf_n33_rf      = 0            
parameters dvth0_n33_rf    = 0             
parameters dlvth0_n33_rf   = 0           
parameters dwvth0_n33_rf   = 0            
parameters dpvth0_n33_rf   = 0            
parameters du0_n33_rf      = 0           
parameters dlu0_n33_rf     = 0            
parameters dwu0_n33_rf     = 0              
parameters dpu0_n33_rf     = 0           
parameters dvsat_n33_rf    = 0            
parameters dlvsat_n33_rf   = 0            
parameters dwvsat_n33_rf   = 0           
parameters dpvsat_n33_rf   = 0            
parameters djtsswgs_n33_rf = 0          
parameters djtsswgd_n33_rf = 0           
parameters dlagidl_n33_rf  = 0            
parameters dpagidl_n33_rf  = 0

parameters drshg_n33_rf    = 0
parameters drg_n33_rf      = 0
parameters dcgdext_n33_rf  = 0
parameters dcgsext_n33_rf  = 0
//*ndio33_rf(tt corner)
parameters dcj_ndio33_rf = 0   
parameters dcjsw_ndio33_rf = 0 

// ******mismatch******
parameters dtoxe_n33_mis_rf       = dtoxe_n33_rf+atoxe_n33_rf*geo_fac*sigma_mis_a_rf*mismod
parameters dxl_n33_mis_rf         = dxl_n33_rf+axl_n33_rf*geo_fac*sigma_mis_b_rf*mismod
parameters dxw_n33_mis_rf         = dxw_n33_rf+axw_n33_rf*geo_fac*sigma_mis_c_rf*mismod
parameters dvth0_n33_mis_rf       = dvth0_n33_rf+avth0_n33_rf*geo_fac*sigma_mis_d_rf*mismod
parameters du0_n33_mis_rf         = du0_n33_rf+au0_n33_rf*geo_fac*sigma_mis_e_rf*mismod
parameters dvoff_n33_mis_rf       = 0+avoff_n33_rf*geo_fac*sigma_mis_f_rf*mismod
parameters dvsat_n33_mis_rf       = dvsat_n33_rf+avsat_n33_rf*geo_fac*sigma_mis_g_rf*mismod
           
parameters dtoxe_n33_mismatch_rf  = 0+dtoxe_n33_mis_rf
parameters dxl_n33_mismatch_rf    = 0+dxl_n33_mis_rf
parameters dxw_n33_mismatch_rf    = 0+dxw_n33_mis_rf
parameters dvth0_n33_mismatch_rf  = 0+dvth0_n33_mis_rf
parameters du0_n33_mismatch_rf    = 0+du0_n33_mis_rf
parameters dvoff_n33_mismatch_rf  = 0+dvoff_n33_mis_rf
parameters dvsat_n33_mismatch_rf  = 0+dvsat_n33_mis_rf
           
parameters xlr = 1E-8                    
parameters xwr = 1E-8         
parameters lef = l+xlr                
parameters wef = w/nf+xwr             
parameters geo_fac = 1/sqrt(wef*lef*nf*mr) 
parameters atoxe_n33_rf = 5E-19             
parameters axl_n33_rf = 6E-17              
parameters axw_n33_rf = 6E-17              
parameters avth0_n33_rf = 8E-9            
parameters au0_n33_rf = 1.55E-10          
parameters avoff_n33_rf = 7e-9             
parameters avsat_n33_rf = 0
parameters tc1r = 3.00e-03
parameters tc2r = 9.75e-08
parameters tcoef_temper = 1.0+(temp-25.0)*(tc1r+tc2r*(temp-25.0))
parameters rshg_n33_rf=((6.229+drshg_n33_rf)*tcoef_temper)

dnw33_ckt_rf (1 2 3 4) dnw33_ckt_rf_r wrr=wr lrr=lr sarr=sar sbrr=sbr sdrr=sdr nrdrr=nrdr nrsrr=nrsr scarr=scar scbrr=scbr sccrr=sccr nfr=nf mrr=mr 


include "mse018_v1p11_mis_rf_spe.ckt"
ends dnw33_ckt_rf


// *3.3v nmos in dnw with 6 ports(tt corner)
// * 1=drain,2=gate,3=source,4=bulk
inline subckt dnw33_6t_ckt_rf (1 2 3 4 5 6)
parameters wr=1e-6 lr=1e-6 nf=1 sar=1.21e-006 sbr=1.21e-006 sdr=0.54e-6 nrdr=0.001 nrsr=0.001 mr=1 scar=0 scbr=0 sccr=0 mismod=1 arpw=162.01e-12 pjpw=55.12e-6 ardnw=190.57e-12 pjdnw=59.12e-6
parameters w=(wr*nf) l=lr 
// *3.3v core nmos (tt corner)
parameters dtoxe_n33_rf    = 0           
parameters dxl_n33_rf      = 0            
parameters dxw_n33_rf      = 0              
parameters dcjs_n33_rf     = 0           
parameters dcjsws_n33_rf   = 0            
parameters dcjswgs_n33_rf  = 0           
parameters dcgdo_n33_rf    = 0           
parameters dcgdl_n33_rf    = 0            
parameters dcgso_n33_rf    = 0             
parameters dcgsl_n33_rf    = 0           
parameters dcf_n33_rf      = 0            
parameters dvth0_n33_rf    = 0             
parameters dlvth0_n33_rf   = 0           
parameters dwvth0_n33_rf   = 0            
parameters dpvth0_n33_rf   = 0            
parameters du0_n33_rf      = 0           
parameters dlu0_n33_rf     = 0            
parameters dwu0_n33_rf     = 0              
parameters dpu0_n33_rf     = 0           
parameters dvsat_n33_rf    = 0            
parameters dlvsat_n33_rf   = 0            
parameters dwvsat_n33_rf   = 0           
parameters dpvsat_n33_rf   = 0            
parameters djtsswgs_n33_rf = 0          
parameters djtsswgd_n33_rf = 0           
parameters dlagidl_n33_rf  = 0            
parameters dpagidl_n33_rf  = 0

parameters drshg_n33_rf    = 0
parameters drg_n33_rf      = 0
parameters dcgdext_n33_rf  = 0
parameters dcgsext_n33_rf  = 0
//*ndio33_rf(tt corner)
parameters dcj_ndio33_rf = 0   
parameters dcjsw_ndio33_rf = 0 
// *diobpw_rf(tt corner)
parameters dcj_diobpw_rf = 0.00
parameters dcjsw_diobpw_rf = 0.00
// *dnwdio_rf(tt corner)
parameters dcj_dnwdio_rf = 0.00
parameters dcjsw_dnwdio_rf = 0.00
// ******mismatch******
parameters dtoxe_n33_mis_rf       = dtoxe_n33_rf+atoxe_n33_rf*geo_fac*sigma_mis_a_rf*mismod
parameters dxl_n33_mis_rf         = dxl_n33_rf+axl_n33_rf*geo_fac*sigma_mis_b_rf*mismod
parameters dxw_n33_mis_rf         = dxw_n33_rf+axw_n33_rf*geo_fac*sigma_mis_c_rf*mismod
parameters dvth0_n33_mis_rf       = dvth0_n33_rf+avth0_n33_rf*geo_fac*sigma_mis_d_rf*mismod
parameters du0_n33_mis_rf         = du0_n33_rf+au0_n33_rf*geo_fac*sigma_mis_e_rf*mismod
parameters dvoff_n33_mis_rf       = 0+avoff_n33_rf*geo_fac*sigma_mis_f_rf*mismod
parameters dvsat_n33_mis_rf       = dvsat_n33_rf+avsat_n33_rf*geo_fac*sigma_mis_g_rf*mismod
           
parameters dtoxe_n33_mismatch_rf  = 0+dtoxe_n33_mis_rf
parameters dxl_n33_mismatch_rf    = 0+dxl_n33_mis_rf
parameters dxw_n33_mismatch_rf    = 0+dxw_n33_mis_rf
parameters dvth0_n33_mismatch_rf  = 0+dvth0_n33_mis_rf
parameters du0_n33_mismatch_rf    = 0+du0_n33_mis_rf
parameters dvoff_n33_mismatch_rf  = 0+dvoff_n33_mis_rf
parameters dvsat_n33_mismatch_rf  = 0+dvsat_n33_mis_rf
           
parameters xlr = 1E-8                    
parameters xwr = 1E-8         
parameters lef = l+xlr                
parameters wef = w/nf+xwr             
parameters geo_fac = 1/sqrt(wef*lef*nf*mr) 
parameters atoxe_n33_rf = 5E-19             
parameters axl_n33_rf = 6E-17              
parameters axw_n33_rf = 6E-17              
parameters avth0_n33_rf = 8E-9            
parameters au0_n33_rf = 1.55E-10          
parameters avoff_n33_rf = 7e-9             
parameters avsat_n33_rf = 0
parameters tc1r = 3.00e-03
parameters tc2r = 9.75e-08
parameters tcoef_temper = 1.0+(temp-25.0)*(tc1r+tc2r*(temp-25.0))
parameters rshg_n33_rf=((6.229+drshg_n33_rf)*tcoef_temper)

dnw33_6t_ckt_rf (1 2 3 4 5 6) dnw33_6t_ckt_rf_r wrr=wr lrr=lr sarr=sar sbrr=sbr sdrr=sdr nrdrr=nrdr nrsrr=nrsr scarr=scar scbrr=scbr sccrr=sccr nfr=nf mrr=mr arpwr=arpw pjpwr=pjpw ardnwr=ardnw pjdnwr=pjdnw 

include "mse018_v1p11_mis_rf_spe.ckt"
ends dnw33_6t_ckt_rf


// *3.3v pmos (tt corner)
// * 1=drain,2=gate,3=source,4=bulk
inline subckt p33_ckt_rf (1 2 3 4)
parameters wr=2.5e-6 lr=3e-7 nf=16 sar=1.16u sbr=1.16u sdr=0.54u nrdr=0.00675 nrsr=0.00953125 mr=1 scar=0 scbr=0 sccr=0 mismod=1
parameters w=(wr*nf) l=lr 
// *p33_ckt(tt corner)
parameters dtoxe_p33_rf   = 0              
parameters dxl_p33_rf     = 0               
parameters dxw_p33_rf     = 0              
parameters dcjs_p33_rf    = 0              
parameters dcjsws_p33_rf  = 0               
parameters dcjswgs_p33_rf = 0           
parameters dcgdo_p33_rf   = 0              
parameters dcgso_p33_rf   = 0               
parameters dcgdl_p33_rf   = 0             
parameters dcgsl_p33_rf   = 0              
parameters dcf_p33_rf     = 0               
parameters dvth0_p33_rf   = 0             
parameters dlvth0_p33_rf  = 0              
parameters dwvsat_p33_rf  = 0               
parameters dpvth0_p33_rf  = 0            
parameters du0_p33_rf     = 0              
parameters dlu0_p33_rf    = 0               
parameters dwu0_p33_rf    = 0              
parameters dpu0_p33_rf    = 0              
parameters dvsat_p33_rf   = 0               
parameters dlvsat_p33_rf  = 0            
parameters dpvsat_p33_rf  = 0              
parameters dwvth0_p33_rf  = 0               
parameters dagidl_p33_rf  = 0            
parameters dlagidl_p33_rf = 0              
parameters dwagidl_p33_rf = 0               
parameters dpagidl_p33_rf = 0

parameters dcgdext_p33_rf = 0
parameters dcgsext_p33_rf = 0
parameters drg_p33_rf     = 0
parameters drshg_p33_rf   = 0

// ******mismatch******
parameters xlr = 1E-8                    
parameters xwr = 1E-8         
parameters lef = l+xlr                
parameters wef = w/nf+xwr             
parameters geo_fac = 1/sqrt(wef*lef*nf*mr) 
parameters atoxe_p33_rf = 5E-19             
parameters axl_p33_rf = 6E-17               
parameters axw_p33_rf = 6E-17               
parameters avth0_p33_rf = 3.30E-9           
parameters au0_p33_rf = 3.65E-11            
parameters avoff_p33_rf = -2.6E-9           
parameters aeta0_p33_rf = 0                 
parameters avsat_p33_rf = -1.65E-3          
parameters dtoxe_p33_rf_mis       = dtoxe_p33_rf+atoxe_p33_rf*geo_fac*sigma_mis_a_rf*mismod
parameters dxl_p33_rf_mis         = dxl_p33_rf+axl_p33_rf*geo_fac*sigma_mis_b_rf*mismod
parameters dxw_p33_rf_mis         = dxw_p33_rf+axw_p33_rf*geo_fac*sigma_mis_c_rf*mismod
parameters dvth0_p33_rf_mis       = dvth0_p33_rf+avth0_p33_rf*geo_fac*sigma_mis_d_rf*mismod
parameters du0_p33_rf_mis         = du0_p33_rf+au0_p33_rf*geo_fac*sigma_mis_e_rf*mismod
parameters dvoff_p33_rf_mis       = 0+avoff_p33_rf*geo_fac*sigma_mis_f_rf*mismod
parameters dvsat_p33_rf_mis       = dvsat_p33_rf+avsat_p33_rf*geo_fac*sigma_mis_g_rf*mismod
parameters deta0_p33_rf_mis       = 0+aeta0_p33_rf*geo_fac*sigma_mis_h_rf*mismod
parameters dtoxe_p33_rf_mismatch  = 0+dtoxe_p33_rf_mis
parameters dxl_p33_rf_mismatch    = 0+dxl_p33_rf_mis
parameters dxw_p33_rf_mismatch    = 0+dxw_p33_rf_mis
parameters dvth0_p33_rf_mismatch  = 0+dvth0_p33_rf_mis
parameters du0_p33_rf_mismatch    = 0+du0_p33_rf_mis
parameters dvoff_p33_rf_mismatch  = 0+dvoff_p33_rf_mis
parameters dvsat_p33_rf_mismatch  = 0+dvsat_p33_rf_mis
parameters deta0_p33_rf_mismatch  = 0+deta0_p33_rf_mis
parameters tc1r = 3.00e-03
parameters tc2r = 2.76e-07
parameters tcoef_temper = 1.0+(temp-25.0)*(tc1r+tc2r*(temp-25.0))
parameters rshg_p33_rf=((7.196+drshg_p33_rf)*tcoef_temper)


p33_ckt_rf (1 2 3 4) p33_ckt_rf_r wrr=wr lrr=lr sarr=sar sbrr=sbr sdrr=sdr nrdrr=nrdr nrsrr=nrsr scarr=scar scbrr=scbr sccrr=sccr nfr=nf mrr=mr

include "mse018_v1p11_mis_rf_spe.ckt"
ends p33_ckt_rf

// *3.3v pmos with 5 ports(tt corner)
// * 1=drain,2=gate,3=source,4=bulk,5=psub
inline subckt p33_5t_ckt_rf (1 2 3 4 5)
parameters wr=2.5e-6 lr=3e-7 nf=16 sar=1.16u sbr=1.16u sdr=0.54u nrdr=0.00675 nrsr=0.00953125 mr=1 scar=0 scbr=0 sccr=0 mismod=1 arnw=180.37e-12 pjnw=59.44e-6